Circuit: * D:\Google Drive\Delta Technologies\Projects\deltaSigmaADC\SPICE\deltaSigmaFirstOrderModulator.asc

Limiting rise time of source v5 to 1.65e-007
Limiting fall time of source v5 to 1.65e-007
Instance "m:u3:6": Length shorter than recommended for a level 2 MOSFET.
Instance "m:u3:5": Length shorter than recommended for a level 2 MOSFET.
Instance "m:u3:4": Length shorter than recommended for a level 2 MOSFET.
Instance "m:u3:3": Length shorter than recommended for a level 2 MOSFET.
Instance "m:u3:2": Length shorter than recommended for a level 2 MOSFET.
Instance "m:u3:1": Length shorter than recommended for a level 2 MOSFET.
Direct Newton iteration failed to find .op point.  (Use ".option noopiter" to skip.)
Starting Gmin stepping
Gmin = 10
Gmin = 1.07374
Gmin = 0.115292
Gmin = 0.0123794
Gmin = 0.00132923
Gmin = 0.000142725
Gmin = 1.5325e-005
Gmin = 1.6455e-006
Gmin = 1.76685e-007
Gmin = 1.89714e-008
Gmin = 2.03704e-009
vernier = 0.5
vernier = 0.25
vernier = 0.125
vernier = 0.0625
vernier = 0.03125
Gmin = 8.3437e-010
vernier = 0.015625
vernier = 0.0208333
Gmin = 8.01435e-010
vernier = 0.0277778
vernier = 0.037037
Gmin = 7.46995e-010
vernier = 0.0493827
Gmin = 6.68858e-010
vernier = 0.0658435
vernier = 0.0877914
Gmin = 5.56e-010
vernier = 0.117055
vernier = 0.156073
Gmin = 4.14773e-010
vernier = 0.208098
Gmin = 2.6252e-010
vernier = 0.277464
vernier = 0.369952
Gmin = 1.23236e-010
vernier = 0.493269
vernier = 0.657691
Gmin = 3.79026e-011
vernier = 0.876922
Gmin = 6.27641e-012
vernier = 1
Gmin = 6.73925e-013
Gmin = 0
Gmin stepping succeeded in finding the operating point.

Heightened Def Con from 0.000405949 to 0.000405953
Heightened Def Con from 0.000475249 to 0.000475253
Heightened Def Con from 0.00230675 to 0.00230675
Heightened Def Con from 0.00231005 to 0.00231005
Heightened Def Con from 0.00279185 to 0.00279185
Heightened Def Con from 0.00313835 to 0.00313835
Heightened Def Con from 0.00355415 to 0.00355415
Heightened Def Con from 0.00547145 to 0.00547145
Heightened Def Con from 0.00562985 to 0.00562985
Heightened Def Con from 0.00575195 to 0.00575195
Heightened Def Con from 0.00600605 to 0.00600605
Heightened Def Con from 0.00640535 to 0.00640535
Heightened Def Con from 0.0301554 to 0.0301554

Date: Wed Mar 27 23:27:16 2019
Total elapsed time: 28.746 seconds.

tnom = 27
temp = 27
method = modified trap
totiter = 2181745
traniter = 2180411
tranpoints = 961684
accept = 659513
rejected = 302184
matrix size = 63
fillins = 93
solver = Normal
Thread vector: 11.1/9.6[2] 3.2/2.5[2] 2.6/2.3[2] 0.2/4.0[1]  2592/500
Matrix Compiler1: 7.79 KB object code size  1.7/0.8/[0.5]
Matrix Compiler2: 6.92 KB object code size  0.8/1.5/[0.5]

