Circuit: * D:\Google Drive\Delta Technologies\Projects\Delta Sigma ADC\SPICE\deltaSigmaFirstOrderModulator.asc

Limiting rise time of source v5 to 5e-007
Limiting fall time of source v5 to 5e-007
Direct Newton iteration failed to find .op point.  (Use ".option noopiter" to skip.)
Starting Gmin stepping
Gmin = 10
Gmin = 1.07374
Gmin = 0.115292
Gmin = 0.0123794
Gmin = 0.00132923
Gmin = 0.000142725
Gmin = 1.5325e-005
Gmin = 1.6455e-006
Gmin = 1.76685e-007
Gmin = 1.89714e-008
Gmin = 2.03704e-009
Gmin = 2.18725e-010
vernier = 0.5
Gmin = 3.6696e-011
vernier = 0.25
vernier = 0.125
vernier = 0.0625
vernier = 0.03125
vernier = 0.015625
vernier = 0.0078125
vernier = 0.00390625
vernier = 0.00195313
vernier = 0.000976563
vernier = 0.000488281
Gmin = 3.6696e-011
Gmin = 0
Gmin stepping failed

Starting source stepping with srcstepmethod=0
Source Step = 3.0303%
Source Step = 33.3333%
Source Step = 63.6364%
Source Step = 85.0379%
Source Step = 86.9318%
Source Step = 88.8258%
Source Step = 90.7197%
Source Step = 92.6136%
Source Step = 94.5076%
vernier = 0.09375
Source Step = 97.3485%
Source Step = 100%
Source stepping succeeded in finding the operating point.

Ignoring empty pin current: Ix(u8:5)
Ignoring empty pin current: Ix(u8:6)
Ignoring empty pin current: Ix(u8:7)
Ignoring empty pin current: Ix(u8:8)
Ignoring empty pin current: Ix(u8:9)
Ignoring empty pin current: Ix(u8:10)
Ignoring empty pin current: Ix(u8:11)
Ignoring empty pin current: Ix(u8:12)
Ignoring empty pin current: Ix(u8:5)
Ignoring empty pin current: Ix(u8:6)
Ignoring empty pin current: Ix(u8:7)
Ignoring empty pin current: Ix(u8:8)
Ignoring empty pin current: Ix(u8:9)
Ignoring empty pin current: Ix(u8:10)
Ignoring empty pin current: Ix(u8:11)
Ignoring empty pin current: Ix(u8:12)

Date: Mon Mar 25 20:08:52 2019
Total elapsed time: 10.248 seconds.

tnom = 27
temp = 27
method = modified trap
totiter = 538522
traniter = 535826
tranpoints = 149370
accept = 115969
rejected = 33401
matrix size = 50
fillins = 64
solver = Normal
Thread vector: 15.6/7.4[4] 4.9/8.5[1] 1.9/2.8[1] 0.2/1.0[1]  2592/500
Matrix Compiler1: 4.45 KB object code size  1.3/0.6/[0.3]
Matrix Compiler2: 5.54 KB object code size  0.7/0.9/[0.4]

