Circuit: * D:\Google Drive\Delta Technologies\Projects\deltaSigmaADC\SPICE\deltaSigmaFirstOrderModulator.asc

Limiting rise time of source v3 to 5e-006
Limiting fall time of source v3 to 5e-006
Instance "m:u1:6": Length shorter than recommended for a level 2 MOSFET.
Instance "m:u1:5": Length shorter than recommended for a level 2 MOSFET.
Instance "m:u1:4": Length shorter than recommended for a level 2 MOSFET.
Instance "m:u1:3": Length shorter than recommended for a level 2 MOSFET.
Instance "m:u1:2": Length shorter than recommended for a level 2 MOSFET.
Instance "m:u1:1": Length shorter than recommended for a level 2 MOSFET.
Direct Newton iteration for .op point succeeded.
Heightened Def Con from 0.000604488 to 0.000604488
Heightened Def Con from 0.000604488 to 0.000604488
Heightened Def Con from 0.000604488 to 0.000604488
Heightened Def Con from 0.000604488 to 0.000604488
Heightened Def Con from 0.000604488 to 0.000604488
Heightened Def Con from 0.000604488 to 0.000604488
Heightened Def Con from 0.000604488 to 0.000604488
Heightened Def Con from 0.000604488 to 0.000604488
Heightened Def Con from 0.000604488 to 0.000604488
Heightened Def Con from 0.00060449 to 0.00060449
Heightened Def Con from 0.00060449 to 0.00060449
Heightened Def Con from 0.00060449 to 0.00060449
Heightened Def Con from 0.00060449 to 0.00060449
Heightened Def Con from 0.00060449 to 0.00060449
Heightened Def Con from 0.00060449 to 0.00060449
Heightened Def Con from 0.000604491 to 0.000604491
Heightened Def Con from 0.000604491 to 0.000604491
Heightened Def Con from 0.000604491 to 0.000604491
Heightened Def Con from 0.000604491 to 0.000604491
Heightened Def Con from 0.000604491 to 0.000604491
Heightened Def Con from 0.000604492 to 0.000604492
Heightened Def Con from 0.000604493 to 0.000604493
Heightened Def Con from 0.000604493 to 0.000604493
Heightened Def Con from 0.000604493 to 0.000604493
Heightened Def Con from 0.000604493 to 0.000604494
Heightened Def Con from 0.000604494 to 0.000604494
Heightened Def Con from 0.000604494 to 0.000604494
Heightened Def Con from 0.000604494 to 0.000604494
Heightened Def Con from 0.000604494 to 0.000604494
Heightened Def Con from 0.000604494 to 0.000604494
Heightened Def Con from 0.000604494 to 0.000604494
Heightened Def Con from 0.000604494 to 0.000604494
Heightened Def Con from 0.000604494 to 0.000604494
Heightened Def Con from 0.000604494 to 0.000604494
Heightened Def Con from 0.000604494 to 0.000604494
Heightened Def Con from 0.000604494 to 0.000604494
Heightened Def Con from 0.000604494 to 0.000604494
Heightened Def Con from 0.000604494 to 0.000604494
Heightened Def Con from 0.000604494 to 0.000604494
Heightened Def Con from 0.000604494 to 0.000604494
Heightened Def Con from 0.000604494 to 0.000604494
Heightened Def Con from 0.000604494 to 0.000604494
Heightened Def Con from 0.000604494 to 0.000604494
Heightened Def Con from 0.000604494 to 0.000604494
Heightened Def Con from 0.000604494 to 0.000604494
Heightened Def Con from 0.000604494 to 0.000604494
Heightened Def Con from 0.000604494 to 0.000604494
Heightened Def Con from 0.000604494 to 0.000604494
Heightened Def Con from 0.000604494 to 0.000604494
Heightened Def Con from 0.000604494 to 0.000604494
Heightened Def Con from 0.000604494 to 0.000604494
Heightened Def Con from 0.000604494 to 0.000604494
Heightened Def Con from 0.000604494 to 0.000604494
Heightened Def Con from 0.000604495 to 0.000604495
Heightened Def Con from 0.000604495 to 0.000604495
Heightened Def Con from 0.000604495 to 0.000604495
Heightened Def Con from 0.000604495 to 0.000604495
Heightened Def Con from 0.000604495 to 0.000604495
Heightened Def Con from 0.000604495 to 0.000604495
Heightened Def Con from 0.000604495 to 0.000604495
Heightened Def Con from 0.000604495 to 0.000604495
Heightened Def Con from 0.000604496 to 0.000604496
Heightened Def Con from 0.000604496 to 0.000604496
Heightened Def Con from 0.000604496 to 0.000604496
Heightened Def Con from 0.000604496 to 0.000604496
Heightened Def Con from 0.000604496 to 0.000604496
Heightened Def Con from 0.000604496 to 0.000604496
Heightened Def Con from 0.000604496 to 0.000604496
Heightened Def Con from 0.000604496 to 0.000604496
Heightened Def Con from 0.000604496 to 0.000604496
Heightened Def Con from 0.000604496 to 0.000604496
Heightened Def Con from 0.000604497 to 0.000604497
Heightened Def Con from 0.000604497 to 0.000604497
Heightened Def Con from 0.000604497 to 0.000604497
Heightened Def Con from 0.000604497 to 0.000604497
Heightened Def Con from 0.000604497 to 0.000604497
Heightened Def Con from 0.000604497 to 0.000604497
Heightened Def Con from 0.000604497 to 0.000604497
Heightened Def Con from 0.000604497 to 0.000604497
Heightened Def Con from 0.000604497 to 0.000604497
Heightened Def Con from 0.000604497 to 0.000604497
Heightened Def Con from 0.000604497 to 0.000604497
Heightened Def Con from 0.000604497 to 0.000604497
Heightened Def Con from 0.000604497 to 0.000604497
Heightened Def Con from 0.000604497 to 0.000604497
Heightened Def Con from 0.000604497 to 0.000604497
Heightened Def Con from 0.000604497 to 0.000604497
Heightened Def Con from 0.000604497 to 0.000604497
Heightened Def Con from 0.000604497 to 0.000604497
Heightened Def Con from 0.000604497 to 0.000604497
Heightened Def Con from 0.000604497 to 0.000604497
Heightened Def Con from 0.000604497 to 0.000604497
Heightened Def Con from 0.000604498 to 0.000604498
Heightened Def Con from 0.000604498 to 0.000604498
Heightened Def Con from 0.000604498 to 0.000604498
Heightened Def Con from 0.000604498 to 0.000604498
Heightened Def Con from 0.000604498 to 0.000604498
Heightened Def Con from 0.000604498 to 0.000604498
Heightened Def Con from 0.000604498 to 0.000604498
Heightened Def Con from 0.000604498 to 0.000604498
Heightened Def Con from 0.000604498 to 0.000604498
Heightened Def Con from 0.000604498 to 0.000604498
Heightened Def Con from 0.000604498 to 0.000604498
Heightened Def Con from 0.000604498 to 0.000604498
Heightened Def Con from 0.000604498 to 0.000604498
Heightened Def Con from 0.000604498 to 0.000604498
Heightened Def Con from 0.000604499 to 0.000604499
Heightened Def Con from 0.000604499 to 0.000604499
Heightened Def Con from 0.000604499 to 0.000604499
Heightened Def Con from 0.000604499 to 0.000604499
Heightened Def Con from 0.000604499 to 0.000604499
Heightened Def Con from 0.000604499 to 0.000604499
Heightened Def Con from 0.000604499 to 0.000604499
Heightened Def Con from 0.000604499 to 0.000604499
Heightened Def Con from 0.000604499 to 0.000604499
Heightened Def Con from 0.000604499 to 0.000604499
Heightened Def Con from 0.000604499 to 0.000604499
Heightened Def Con from 0.000604499 to 0.000604499
Heightened Def Con from 0.000604499 to 0.000604499
Heightened Def Con from 0.0006045 to 0.0006045
Heightened Def Con from 0.0006045 to 0.0006045
Heightened Def Con from 0.0006045 to 0.0006045
Heightened Def Con from 0.0006045 to 0.0006045
Heightened Def Con from 0.0006045 to 0.0006045
Heightened Def Con from 0.0006045 to 0.0006045
Heightened Def Con from 0.0006045 to 0.0006045
Heightened Def Con from 0.0006045 to 0.0006045
Heightened Def Con from 0.000604501 to 0.000604501
Heightened Def Con from 0.000604501 to 0.000604501
Heightened Def Con from 0.000604501 to 0.000604501
Heightened Def Con from 0.000604501 to 0.000604501
Heightened Def Con from 0.000604501 to 0.000604501
Heightened Def Con from 0.000604501 to 0.000604501
Heightened Def Con from 0.000604501 to 0.000604501
Heightened Def Con from 0.000604501 to 0.000604501
Heightened Def Con from 0.000604501 to 0.000604501
Heightened Def Con from 0.000604501 to 0.000604501
Heightened Def Con from 0.000604501 to 0.000604501
Heightened Def Con from 0.000604501 to 0.000604501
Heightened Def Con from 0.000604501 to 0.000604501
Heightened Def Con from 0.000604501 to 0.000604501
Heightened Def Con from 0.000604501 to 0.000604501
Heightened Def Con from 0.000604501 to 0.000604501
Heightened Def Con from 0.000604501 to 0.000604501
Heightened Def Con from 0.000604501 to 0.000604501
Heightened Def Con from 0.000604501 to 0.000604501
Heightened Def Con from 0.000604501 to 0.000604501
Heightened Def Con from 0.000604501 to 0.000604501
Heightened Def Con from 0.000604501 to 0.000604501
Heightened Def Con from 0.000604501 to 0.000604501
Heightened Def Con from 0.000604501 +to 0.000604501
Heightened Def Con from 0.000604501 to 0.000604501
Heightened Def Con from 0.000604501 to 0.000604501
Heightened Def Con from 0.000604501 to 0.000604501
Heightened Def Con from 0.000604501 to 0.000604501
Heightened Def Con from 0.000604501 to 0.000604501
Heightened Def Con from 0.000604501 to 0.000604501
Heightened Def Con from 0.000604501 to 0.000604501
Heightened Def Con from 0.000604501 to 0.000604501
Heightened Def Con from 0.000604501 to 0.000604501
Heightened Def Con from 0.000604501 to 0.000604501
Heightened Def Con from 0.000604501 to 0.000604501
Heightened Def Con from 0.000604501 to 0.000604501
Heightened Def Con from 0.000604501 to 0.000604501
Heightened Def Con from 0.000604501 to 0.000604501
Heightened Def Con from 0.000604501 to 0.000604501
Heightened Def Con from 0.000604501 to 0.000604501
Heightened Def Con from 0.000604501 to 0.000604501
Heightened Def Con from 0.000604501 to 0.000604501
Heightened Def Con from 0.000604501 to 0.000604501
Heightened Def Con from 0.000604501 to 0.000604501
Heightened Def Con from 0.000604501 to 0.000604501
Heightened Def Con from 0.000604502 to 0.000604502
Heightened Def Con from 0.000604502 to 0.000604502
Heightened Def Con from 0.000604502 to 0.000604502
Heightened Def Con from 0.000604502 to 0.000604502
Heightened Def Con from 0.000604502 to 0.000604502
Heightened Def Con from 0.000604502 to 0.000604502
Heightened Def Con from 0.000604502 to 0.000604502
Heightened Def Con from 0.000604502 to 0.000604502
Heightened Def Con from 0.000604502 to 0.000604502
Heightened Def Con from 0.000604502 to 0.000604502
Heightened Def Con from 0.000604502 to 0.000604502
Heightened Def Con from 0.000604502 to 0.000604502
Heightened Def Con from 0.000604502 to 0.000604502
Heightened Def Con from 0.000604502 to 0.000604502
Heightened Def Con from 0.000604502 to 0.000604502
Heightened Def Con from 0.000604502 to 0.000604502
Heightened Def Con from 0.000604502 to 0.000604502
Heightened Def Con from 0.000604502 to 0.000604502
Heightened Def Con from 0.000604502 to 0.000604502
Heightened Def Con from 0.000604502 to 0.000604502
Heightened Def Con from 0.000604502 to 0.000604502
Heightened Def Con from 0.000604502 to 0.000604502
Heightened Def Con from 0.000604502 to 0.000604502
Heightened Def Con from 0.000604502 to 0.000604502
Heightened Def Con from 0.000604502 to 0.000604502
Heightened Def Con from 0.000604502 to 0.000604502
Heightened Def Con from 0.000604502 to 0.000604502
Heightened Def Con from 0.000604502 to 0.000604502
Heightened Def Con from 0.000604502 to 0.000604502
Heightened Def Con from 0.000604502 to 0.000604502
Heightened Def Con from 0.000604502 to 0.000604502
Heightened Def Con from 0.000604502 to 0.000604502
Heightened Def Con from 0.000604502 to 0.000604502
Heightened Def Con from 0.000604502 to 0.000604502
Heightened Def Con from 0.000604502 to 0.000604502
Heightened Def Con from 0.000604502 to 0.000604502
Heightened Def Con from 0.000604502 to 0.000604502
Heightened Def Con from 0.000604502 to 0.000604502
Heightened Def Con from 0.000604502 to 0.000604502
Heightened Def Con from 0.000604503 to 0.000604503
Heightened Def Con from 0.000604503 to 0.000604503
Heightened Def Con from 0.000604503 to 0.000604503
Heightened Def Con from 0.000604503 to 0.000604503
Heightened Def Con from 0.000604503 to 0.000604503
Heightened Def Con from 0.000604503 to 0.000604503
Heightened Def Con from 0.000604503 to 0.000604503
Heightened Def Con from 0.000604503 to 0.000604503
Heightened Def Con from 0.000604503 to 0.000604503
Heightened Def Con from 0.000604503 to 0.000604503
Heightened Def Con from 0.000604503 to 0.000604503
Heightened Def Con from 0.000604503 to 0.000604503
Heightened Def Con from 0.000604503 to 0.000604503
Heightened Def Con from 0.000604503 to 0.000604503
Heightened Def Con from 0.000604503 to 0.000604503
Heightened Def Con from 0.000604503 to 0.000604503
Heightened Def Con from 0.000604504 to 0.000604504
Heightened Def Con from 0.000604504 to 0.000604504
Heightened Def Con from 0.000604504 to 0.000604504
Heightened Def Con from 0.000604504 to 0.000604504
Heightened Def Con from 0.000604504 to 0.000604504
Heightened Def Con from 0.000604504 to 0.000604504
Heightened Def Con from 0.000604504 to 0.000604504
Heightened Def Con from 0.000604504 to 0.000604504
Heightened Def Con from 0.000604504 to 0.000604504
Heightened Def Con from 0.000604504 to 0.000604504
Heightened Def Con from 0.000604504 to 0.000604504
Heightened Def Con from 0.000604504 to 0.000604504
Heightened Def Con from 0.000604504 to 0.000604504
Heightened Def Con from 0.000604504 to 0.000604504
Heightened Def Con from 0.000604504 to 0.000604504
Heightened Def Con from 0.000604504 to 0.000604504
Heightened Def Con from 0.000604504 to 0.000604504
Heightened Def Con from 0.000604504 to 0.000604504
Heightened Def Con from 0.000604504 to 0.000604504
Heightened Def Con from 0.000604504 to 0.000604504
Heightened Def Con from 0.000604504 to 0.000604504
Heightened Def Con from 0.000604504 to 0.000604504
Heightened Def Con from 0.000604504 to 0.000604504
Heightened Def Con from 0.000604504 to 0.000604504
Heightened Def Con from 0.000604504 to 0.000604504
Heightened Def Con from 0.000604504 to 0.000604504
Heightened Def Con from 0.000604504 to 0.000604504
Heightened Def Con from 0.000604504 to 0.000604504
Heightened Def Con from 0.000604504 to 0.000604504
Heightened Def Con from 0.000604504 to 0.000604504
Heightened Def Con from 0.000604504 to 0.000604504
Heightened Def Con from 0.000604504 to 0.000604504
Heightened Def Con from 0.000604504 to 0.000604504
Heightened Def Con from 0.000604504 to 0.000604504
Heightened Def Con from 0.000604504 to 0.000604504
Heightened Def Con from 0.000604504 to 0.000604504
Heightened Def Con from 0.000604504 to 0.000604504
Heightened Def Con from 0.000604504 to 0.000604504
Heightened Def Con from 0.000604504 to 0.000604504
Heightened Def Con from 0.000604505 to 0.000604505
Heightened Def Con from 0.000604505 to 0.000604505
Heightened Def Con from 0.000604505 to 0.000604505
Heightened Def Con from 0.000604505 to 0.000604505
Heightened Def Con from 0.000604505 to 0.000604505
Heightened Def Con from 0.000604505 to 0.000604505
Heightened Def Con from 0.000604505 to 0.000604505
Heightened Def Con from 0.000604505 to 0.000604505
Heightened Def Con from 0.000604505 +to 0.000604505
Heightened Def Con from 0.000604505 to 0.000604505
Heightened Def Con from 0.000604505 to 0.000604505
Heightened Def Con from 0.000604505 to 0.000604505
Heightened Def Con from 0.000604505 to 0.000604505
Heightened Def Con from 0.000604505 to 0.000604505
Heightened Def Con from 0.000604505 to 0.000604505
Heightened Def Con from 0.000604505 to 0.000604505
Heightened Def Con from 0.000604505 to 0.000604505
Heightened Def Con from 0.000604505 to 0.000604505
Heightened Def Con from 0.000604505 to 0.000604505
Heightened Def Con from 0.000604505 to 0.000604505
Heightened Def Con from 0.000604505 to 0.000604505
Heightened Def Con from 0.000604506 to 0.000604506
Heightened Def Con from 0.000604506 to 0.000604506
Heightened Def Con from 0.000604506 to 0.000604506
Heightened Def Con from 0.000604506 to 0.000604506
Heightened Def Con from 0.000604506 to 0.000604506
Heightened Def Con from 0.000604506 to 0.000604506
Heightened Def Con from 0.000604506 to 0.000604506
Heightened Def Con from 0.000604506 to 0.000604506
Heightened Def Con from 0.000604506 to 0.000604506
Heightened Def Con from 0.000604506 to 0.000604506
Heightened Def Con from 0.000604506 to 0.000604506
Heightened Def Con from 0.000604506 to 0.000604506
Heightened Def Con from 0.000604506 to 0.000604506
Heightened Def Con from 0.000604506 +to 0.000604506
Heightened Def Con from 0.000604507 to 0.000604507
Heightened Def Con from 0.000604507 to 0.000604507
Heightened Def Con from 0.000604507 to 0.000604507
Heightened Def Con from 0.000604507 to 0.000604507
Heightened Def Con from 0.000604507 to 0.000604507
Heightened Def Con from 0.000604507 to 0.000604507
Heightened Def Con from 0.000604507 to 0.000604507
Heightened Def Con from 0.000604507 to 0.000604507
Heightened Def Con from 0.000604507 to 0.000604507
Heightened Def Con from 0.000604507 to 0.000604507
Heightened Def Con from 0.000604507 to 0.000604507
Heightened Def Con from 0.000604507 to 0.000604507
Heightened Def Con from 0.000604507 to 0.000604507
Heightened Def Con from 0.000604507 to 0.000604507
Heightened Def Con from 0.000604507 to 0.000604507
Heightened Def Con from 0.000604507 to 0.000604507
Heightened Def Con from 0.000604507 to 0.000604507
Heightened Def Con from 0.000604507 to 0.000604507
Heightened Def Con from 0.000604507 to 0.000604507
Heightened Def Con from 0.000604507 to 0.000604507
Heightened Def Con from 0.000604507 to 0.000604507
Heightened Def Con from 0.000604507 to 0.000604507
Heightened Def Con from 0.000604507 to 0.000604507
Heightened Def Con from 0.000604507 to 0.000604507
Heightened Def Con from 0.000604508 to 0.000604508
Heightened Def Con from 0.000604508 to 0.000604508
Heightened Def Con from 0.000604508 to 0.000604508
Heightened Def Con from 0.000604508 to 0.000604508
Heightened Def Con from 0.000604508 to 0.000604508
Heightened Def Con from 0.000604508 to 0.000604508
Heightened Def Con from 0.000604508 to 0.000604508
Heightened Def Con from 0.000604509 to 0.000604509
Heightened Def Con from 0.000604509 to 0.000604509
Heightened Def Con from 0.000604509 to 0.000604509
Heightened Def Con from 0.000604509 to 0.000604509
Heightened Def Con from 0.000604509 to 0.000604509
Heightened Def Con from 0.000604509 to 0.000604509
Heightened Def Con from 0.000604509 to 0.000604509
Heightened Def Con from 0.000604509 to 0.000604509
Heightened Def Con from 0.000604509 to 0.000604509
Heightened Def Con from 0.000604509 to 0.000604509
Heightened Def Con from 0.000604509 to 0.000604509
Heightened Def Con from 0.00060451 to 0.00060451
Heightened Def Con from 0.00060451 to 0.00060451
Heightened Def Con from 0.00060451 to 0.00060451
Heightened Def Con from 0.00060451 +to 0.00060451
Heightened Def Con from 0.00060451 to 0.00060451
Heightened Def Con from 0.000604511 to 0.000604511
Heightened Def Con from 0.000604511 to 0.000604511
Heightened Def Con from 0.000604511 to 0.000604511
Heightened Def Con from 0.000604511 to 0.000604511
Heightened Def Con from 0.000604511 +to 0.000604511
Heightened Def Con from 0.000604511 to 0.000604511
Heightened Def Con from 0.000604511 to 0.000604511
Heightened Def Con from 0.000604512 to 0.000604512
Heightened Def Con from 0.000604512 to 0.000604512
Heightened Def Con from 0.000604512 to 0.000604512
Heightened Def Con from 0.000604512 to 0.000604512
Heightened Def Con from 0.000604512 to 0.000604512
Heightened Def Con from 0.000604512 to 0.000604512
Heightened Def Con from 0.000604512 to 0.000604512
Heightened Def Con from 0.000604512 to 0.000604512
Heightened Def Con from 0.000604512 to 0.000604512
Heightened Def Con from 0.000604512 to 0.000604512
Heightened Def Con from 0.000604512 to 0.000604512
Heightened Def Con from 0.000604512 to 0.000604512
Heightened Def Con from 0.000604512 to 0.000604512
Heightened Def Con from 0.000604512 to 0.000604512
Heightened Def Con from 0.000604512 to 0.000604512
Heightened Def Con from 0.000604512 to 0.000604512
Heightened Def Con from 0.000604512 to 0.000604512
Heightened Def Con from 0.000604512 to 0.000604512
Heightened Def Con from 0.000604512 to 0.000604512
Heightened Def Con from 0.000604512 to 0.000604512
Heightened Def Con from 0.000604513 to 0.000604513
Heightened Def Con from 0.000604513 to 0.000604513
Heightened Def Con from 0.000604513 to 0.000604513
Heightened Def Con from 0.000604513 to 0.000604513
Heightened Def Con from 0.000604513 +to 0.000604513
Heightened Def Con from 0.000604514 to 0.000604514
Heightened Def Con from 0.000604514 +to 0.000604514
Heightened Def Con from 0.000604514 to 0.000604514
Heightened Def Con from 0.000604514 to 0.000604514
Heightened Def Con from 0.000604514 to 0.000604514
Heightened Def Con from 0.000604514 to 0.000604514
Heightened Def Con from 0.000604514 to 0.000604514
Heightened Def Con from 0.000604514 to 0.000604514
Heightened Def Con from 0.000604514 to 0.000604514
Heightened Def Con from 0.000604514 to 0.000604514
Heightened Def Con from 0.000604514 to 0.000604514
Heightened Def Con from 0.000604514 to 0.000604514
Heightened Def Con from 0.000604514 to 0.000604514
Heightened Def Con from 0.000604514 to 0.000604514
Heightened Def Con from 0.000604514 to 0.000604514
Heightened Def Con from 0.000604514 +to 0.000604514
Heightened Def Con from 0.000604514 to 0.000604514
Heightened Def Con from 0.000604514 to 0.000604514
Heightened Def Con from 0.000604514 to 0.000604514
Heightened Def Con from 0.000604514 to 0.000604514
Heightened Def Con from 0.000604514 to 0.000604514
Heightened Def Con from 0.000604514 to 0.000604514
Heightened Def Con from 0.000604514 to 0.000604514
Heightened Def Con from 0.000604514 to 0.000604514
Heightened Def Con from 0.000604514 to 0.000604514
Heightened Def Con from 0.000604514 to 0.000604514
Heightened Def Con from 0.000604514 to 0.000604514
Heightened Def Con from 0.000604514 to 0.000604514
Heightened Def Con from 0.000604514 to 0.000604514
Heightened Def Con from 0.000604514 to 0.000604514
Heightened Def Con from 0.000604514 to 0.000604514
Heightened Def Con from 0.000604514 to 0.000604514
Heightened Def Con from 0.000604514 to 0.000604514
Heightened Def Con from 0.000604514 to 0.000604514
Heightened Def Con from 0.000604514 to 0.000604514
Heightened Def Con from 0.000604514 to 0.000604514
Heightened Def Con from 0.000604514 to 0.000604514
Heightened Def Con from 0.000604514 to 0.000604514
Heightened Def Con from 0.000604514 to 0.000604514
Heightened Def Con from 0.000604515 to 0.000604515
Heightened Def Con from 0.000604515 to 0.000604515
Heightened Def Con from 0.000604515 to 0.000604515
Heightened Def Con from 0.000604515 to 0.000604515
Heightened Def Con from 0.000604515 to 0.000604515
Heightened Def Con from 0.000604515 to 0.000604515
Heightened Def Con from 0.000604515 to 0.000604515
Heightened Def Con from 0.000604515 to 0.000604515
Heightened Def Con from 0.000604515 to 0.000604515
Heightened Def Con from 0.000604515 to 0.000604515
Heightened Def Con from 0.000604515 to 0.000604515
Heightened Def Con from 0.000604515 to 0.000604515
Heightened Def Con from 0.000604515 to 0.000604515
Heightened Def Con from 0.000604515 to 0.000604515
Heightened Def Con from 0.000604515 to 0.000604515
Heightened Def Con from 0.000604515 to 0.000604515
Heightened Def Con from 0.000604515 to 0.000604515
Heightened Def Con from 0.000604515 to 0.000604515
Heightened Def Con from 0.000604515 to 0.000604515
Heightened Def Con from 0.000604515 to 0.000604515
Heightened Def Con from 0.000604515 to 0.000604515
Heightened Def Con from 0.000604515 to 0.000604515
Heightened Def Con from 0.000604515 to 0.000604515
Heightened Def Con from 0.000604515 +to 0.000604515
Heightened Def Con from 0.000604515 to 0.000604515
Heightened Def Con from 0.000604515 to 0.000604515
Heightened Def Con from 0.000604515 to 0.000604515
Heightened Def Con from 0.000604515 to 0.000604515
Heightened Def Con from 0.000604516 to 0.000604516
Heightened Def Con from 0.000604516 to 0.000604516
Heightened Def Con from 0.000604516 to 0.000604516
Heightened Def Con from 0.000604516 to 0.000604516
Heightened Def Con from 0.000604516 to 0.000604516
Heightened Def Con from 0.000604516 to 0.000604516
Heightened Def Con from 0.000604516 to 0.000604516
Heightened Def Con from 0.000604516 to 0.000604516
Heightened Def Con from 0.000604516 to 0.000604516
Heightened Def Con from 0.000604516 to 0.000604516
Heightened Def Con from 0.000604516 to 0.000604516
Heightened Def Con from 0.000604516 to 0.000604516
Heightened Def Con from 0.000604516 to 0.000604516
Heightened Def Con from 0.000604516 to 0.000604516
Heightened Def Con from 0.000604516 to 0.000604516
Heightened Def Con from 0.000604516 to 0.000604516
Heightened Def Con from 0.000604516 to 0.000604516
Heightened Def Con from 0.000604516 to 0.000604516
Heightened Def Con from 0.000604516 to 0.000604516
Heightened Def Con from 0.000604516 to 0.000604516
Heightened Def Con from 0.000604516 to 0.000604516
Heightened Def Con from 0.000604516 +to 0.000604516
Heightened Def Con from 0.000604516 to 0.000604516
Heightened Def Con from 0.000604516 to 0.000604516
Heightened Def Con from 0.000604516 to 0.000604516
Heightened Def Con from 0.000604516 to 0.000604516
Heightened Def Con from 0.000604516 to 0.000604516
Heightened Def Con from 0.000604516 to 0.000604516
Heightened Def Con from 0.000604516 to 0.000604516
Heightened Def Con from 0.000604516 to 0.000604516
Heightened Def Con from 0.000604516 to 0.000604516
Heightened Def Con from 0.000604516 to 0.000604516
Heightened Def Con from 0.000604516 to 0.000604516
Heightened Def Con from 0.000604516 to 0.000604516
Heightened Def Con from 0.000604516 to 0.000604516
Heightened Def Con from 0.000604516 to 0.000604516
Heightened Def Con from 0.000604516 +to 0.000604516
Heightened Def Con from 0.000604516 to 0.000604516
Heightened Def Con from 0.000604516 to 0.000604516
Heightened Def Con from 0.000604516 to 0.000604516
Heightened Def Con from 0.000604516 to 0.000604516
Heightened Def Con from 0.000604517 to 0.000604517
Heightened Def Con from 0.000604517 to 0.000604517
Heightened Def Con from 0.000604517 to 0.000604517
Heightened Def Con from 0.000604517 to 0.000604517
Heightened Def Con from 0.000604517 to 0.000604517
Heightened Def Con from 0.000604517 to 0.000604517
Heightened Def Con from 0.000604517 to 0.000604517
Heightened Def Con from 0.000604517 to 0.000604517
Heightened Def Con from 0.000604517 to 0.000604517
Heightened Def Con from 0.000604517 to 0.000604517
Heightened Def Con from 0.000604517 to 0.000604517
Heightened Def Con from 0.000604517 to 0.000604517
Heightened Def Con from 0.000604517 to 0.000604517
Heightened Def Con from 0.000604517 to 0.000604517
Heightened Def Con from 0.000604517 to 0.000604517
Heightened Def Con from 0.00060452 to 0.00060452
Heightened Def Con from 0.00060452 +to 0.00060452
Heightened Def Con from 0.00060452 to 0.00060452
Heightened Def Con from 0.00060452 to 0.00060452
Heightened Def Con from 0.00060452 to 0.00060452
Heightened Def Con from 0.00060452 to 0.00060452
Heightened Def Con from 0.00060452 to 0.00060452
Heightened Def Con from 0.00060452 +to 0.00060452
Heightened Def Con from 0.00060452 to 0.00060452
Heightened Def Con from 0.00060452 to 0.00060452
Heightened Def Con from 0.00060452 to 0.00060452
Heightened Def Con from 0.00060452 to 0.00060452
Heightened Def Con from 0.00060452 to 0.00060452
Heightened Def Con from 0.00060452 to 0.00060452
Heightened Def Con from 0.00060452 to 0.00060452
Heightened Def Con from 0.00060452 to 0.00060452
Heightened Def Con from 0.00060452 to 0.00060452
Heightened Def Con from 0.00060452 to 0.00060452
Heightened Def Con from 0.00060452 to 0.00060452
Heightened Def Con from 0.00060452 to 0.00060452
Heightened Def Con from 0.00060452 to 0.00060452
Heightened Def Con from 0.00060452 to 0.00060452
Heightened Def Con from 0.00060452 to 0.00060452
Heightened Def Con from 0.00060452 to 0.00060452
Heightened Def Con from 0.00060452 +to 0.00060452
Heightened Def Con from 0.00060452 to 0.00060452
Heightened Def Con from 0.000604521 to 0.000604521
Heightened Def Con from 0.000604521 to 0.000604521
Heightened Def Con from 0.000604521 to 0.000604521
Heightened Def Con from 0.000604521 to 0.000604521
Heightened Def Con from 0.000604521 to 0.000604521
Heightened Def Con from 0.000604521 to 0.000604521
Heightened Def Con from 0.000604521 to 0.000604521
Heightened Def Con from 0.000604521 to 0.000604521
Heightened Def Con from 0.000604521 to 0.000604521
Heightened Def Con from 0.000604521 to 0.000604521
Heightened Def Con from 0.000604521 to 0.000604521
Heightened Def Con from 0.000604521 to 0.000604521
Heightened Def Con from 0.000604521 to 0.000604521
Heightened Def Con from 0.000604521 to 0.000604521
Heightened Def Con from 0.000604521 to 0.000604521
Heightened Def Con from 0.000604521 to 0.000604521
Heightened Def Con from 0.000604521 to 0.000604521
Heightened Def Con from 0.000604522 to 0.000604522
Heightened Def Con from 0.000604522 to 0.000604522
Heightened Def Con from 0.000604522 to 0.000604522
Heightened Def Con from 0.000604522 to 0.000604522
Heightened Def Con from 0.000604522 to 0.000604522
Heightened Def Con from 0.000604522 to 0.000604522
Heightened Def Con from 0.000604522 to 0.000604522
Heightened Def Con from 0.000604522 to 0.000604522
Heightened Def Con from 0.000604522 to 0.000604522
Heightened Def Con from 0.000604522 to 0.000604522
Heightened Def Con from 0.000604523 to 0.000604523
Heightened Def Con from 0.000604523 to 0.000604523
Heightened Def Con from 0.000604523 to 0.000604523
Heightened Def Con from 0.000604523 to 0.000604523
Heightened Def Con from 0.000604523 to 0.000604523
Heightened Def Con from 0.000604523 to 0.000604523
Heightened Def Con from 0.000604523 to 0.000604523
Heightened Def Con from 0.000604523 to 0.000604523
Heightened Def Con from 0.000604523 to 0.000604523
Heightened Def Con from 0.000604523 to 0.000604523
Heightened Def Con from 0.000604523 to 0.000604523
Heightened Def Con from 0.000604523 to 0.000604523
Heightened Def Con from 0.000604523 to 0.000604523
Heightened Def Con from 0.000604523 to 0.000604523
Heightened Def Con from 0.000604523 to 0.000604523
Heightened Def Con from 0.000604523 to 0.000604523
Heightened Def Con from 0.000604523 +to 0.000604523
Heightened Def Con from 0.000604523 to 0.000604523
Heightened Def Con from 0.000604523 to 0.000604523
Heightened Def Con from 0.000604523 to 0.000604523
Heightened Def Con from 0.000604523 to 0.000604523
Heightened Def Con from 0.000604523 to 0.000604523
Heightened Def Con from 0.000604523 to 0.000604523
Heightened Def Con from 0.000604523 to 0.000604523
Heightened Def Con from 0.000604523 to 0.000604523
Heightened Def Con from 0.000604523 to 0.000604523
Heightened Def Con from 0.000604523 to 0.000604523
Heightened Def Con from 0.000604523 to 0.000604523
Heightened Def Con from 0.000604523 to 0.000604523
Heightened Def Con from 0.000604523 to 0.000604523
Heightened Def Con from 0.000604523 to 0.000604523
Heightened Def Con from 0.000604523 to 0.000604523
Heightened Def Con from 0.000604523 to 0.000604523
Heightened Def Con from 0.000604523 to 0.000604523
Heightened Def Con from 0.000604523 to 0.000604523
Heightened Def Con from 0.000604523 to 0.000604523
Heightened Def Con from 0.000604523 to 0.000604523
Heightened Def Con from 0.000604523 to 0.000604523
Heightened Def Con from 0.000604523 to 0.000604523
Heightened Def Con from 0.000604523 to 0.000604523
Heightened Def Con from 0.000604523 to 0.000604523
Heightened Def Con from 0.000604524 to 0.000604524
Heightened Def Con from 0.000604524 to 0.000604524
Heightened Def Con from 0.000604524 to 0.000604524
Heightened Def Con from 0.000604524 to 0.000604524
Heightened Def Con from 0.000604524 to 0.000604524
Heightened Def Con from 0.000604524 +to 0.000604524
Heightened Def Con from 0.000604524 to 0.000604524
Heightened Def Con from 0.000604524 to 0.000604524
Heightened Def Con from 0.000604524 to 0.000604524
Heightened Def Con from 0.000604524 to 0.000604524
Heightened Def Con from 0.000604524 to 0.000604524
Heightened Def Con from 0.000604524 to 0.000604524
Heightened Def Con from 0.000604524 to 0.000604524
Heightened Def Con from 0.000604524 to 0.000604524
Heightened Def Con from 0.000604524 to 0.000604524
Heightened Def Con from 0.000604524 to 0.000604524
Heightened Def Con from 0.000604524 to 0.000604524
Heightened Def Con from 0.000604524 to 0.000604524
Heightened Def Con from 0.000604524 to 0.000604524
Heightened Def Con from 0.000604524 to 0.000604524
Heightened Def Con from 0.000604524 to 0.000604524
Heightened Def Con from 0.000604524 ++to 0.000604524
Heightened Def Con from 0.000604524 to 0.000604524
Heightened Def Con from 0.000604524 to 0.000604524
Heightened Def Con from 0.000604524 to 0.000604524
Heightened Def Con from 0.000604524 to 0.000604524
Heightened Def Con from 0.000604524 to 0.000604524
Heightened Def Con from 0.000604524 to 0.000604524
Heightened Def Con from 0.000604524 to 0.000604524
Heightened Def Con from 0.000604524 to 0.000604524
Heightened Def Con from 0.000604524 to 0.000604524
Heightened Def Con from 0.000604524 to 0.000604524
Heightened Def Con from 0.000604524 to 0.000604524
Heightened Def Con from 0.000604524 to 0.000604524
Heightened Def Con from 0.000604524 to 0.000604524
Heightened Def Con from 0.000604524 to 0.000604524
Heightened Def Con from 0.000604524 to 0.000604524
Heightened Def Con from 0.000604525 to 0.000604525
Heightened Def Con from 0.000604525 to 0.000604525
Heightened Def Con from 0.000604525 to 0.000604525
Heightened Def Con from 0.000604525 to 0.000604525
Heightened Def Con from 0.000604525 to 0.000604525
Heightened Def Con from 0.000604525 to 0.000604525
Heightened Def Con from 0.000604526 to 0.000604526
Heightened Def Con from 0.000604526 to 0.000604526
Heightened Def Con from 0.000604526 to 0.000604526
Heightened Def Con from 0.000604526 to 0.000604526
Heightened Def Con from 0.000604526 to 0.000604526
Heightened Def Con from 0.000604526 to 0.000604526
Heightened Def Con from 0.000604526 to 0.000604526
Heightened Def Con from 0.000604526 to 0.000604526
Heightened Def Con from 0.000604526 to 0.000604526
Heightened Def Con from 0.000604526 to 0.000604526
Heightened Def Con from 0.000604526 to 0.000604526
Heightened Def Con from 0.000604526 to 0.000604526
Heightened Def Con from 0.000604526 to 0.000604526
Heightened Def Con from 0.000604526 to 0.000604526
Heightened Def Con from 0.000604526 to 0.000604526
Heightened Def Con from 0.000604526 to 0.000604526
Heightened Def Con from 0.000604526 to 0.000604526
Heightened Def Con from 0.000604526 to 0.000604526
Heightened Def Con from 0.000604526 to 0.000604526
Heightened Def Con from 0.000604526 to 0.000604526
Heightened Def Con from 0.000604526 to 0.000604526
Heightened Def Con from 0.000604526 to 0.000604526
Heightened Def Con from 0.000604526 to 0.000604526
Heightened Def Con from 0.000604526 to 0.000604526
Heightened Def Con from 0.000604526 to 0.000604526
Heightened Def Con from 0.000604526 to 0.000604526
Heightened Def Con from 0.000604526 to 0.000604526
Heightened Def Con from 0.000604526 to 0.000604526
Heightened Def Con from 0.000604526 to 0.000604526
Heightened Def Con from 0.000604526 to 0.000604526
Heightened Def Con from 0.000604526 to 0.000604526
Heightened Def Con from 0.000604526 to 0.000604526
Heightened Def Con from 0.000604526 to 0.000604526
Heightened Def Con from 0.000604526 to 0.000604526
Heightened Def Con from 0.000604526 to 0.000604526
Heightened Def Con from 0.000604526 to 0.000604526
Heightened Def Con from 0.000604526 to 0.000604526
Heightened Def Con from 0.000604526 to 0.000604526
Heightened Def Con from 0.000604526 to 0.000604526
Heightened Def Con from 0.000604526 to 0.000604526
Heightened Def Con from 0.000604526 to 0.000604526
Heightened Def Con from 0.000604526 to 0.000604526
Heightened Def Con from 0.000604526 to 0.000604526
Heightened Def Con from 0.000604526 +to 0.000604526
Heightened Def Con from 0.000604526 to 0.000604526
Heightened Def Con from 0.000604526 to 0.000604526
Heightened Def Con from 0.000604526 to 0.000604526
Heightened Def Con from 0.000604526 to 0.000604526
Heightened Def Con from 0.000604526 to 0.000604526
Heightened Def Con from 0.000604526 to 0.000604526
Heightened Def Con from 0.000604526 to 0.000604526
Heightened Def Con from 0.000604526 to 0.000604526
Heightened Def Con from 0.000604527 to 0.000604527
Heightened Def Con from 0.000604527 to 0.000604527
Heightened Def Con from 0.000604527 to 0.000604527
Heightened Def Con from 0.000604527 to 0.000604527
Heightened Def Con from 0.000604527 to 0.000604527
Heightened Def Con from 0.000604527 to 0.000604527
Heightened Def Con from 0.000604527 to 0.000604527
Heightened Def Con from 0.000604527 to 0.000604527
Heightened Def Con from 0.000604527 +to 0.000604527
Heightened Def Con from 0.000604527 to 0.000604527
Heightened Def Con from 0.000604527 to 0.000604527
Heightened Def Con from 0.000604527 to 0.000604527
Heightened Def Con from 0.000604527 to 0.000604527
Heightened Def Con from 0.000604527 to 0.000604527
Heightened Def Con from 0.000604527 to 0.000604527
Heightened Def Con from 0.000604527 to 0.000604527
Heightened Def Con from 0.000604527 to 0.000604527
Heightened Def Con from 0.000604527 to 0.000604527
Heightened Def Con from 0.000604527 to 0.000604527
Heightened Def Con from 0.000604527 to 0.000604527
Heightened Def Con from 0.000604527 to 0.000604527
Heightened Def Con from 0.000604527 to 0.000604527
Heightened Def Con from 0.000604527 to 0.000604527
Heightened Def Con from 0.000604527 to 0.000604527
Heightened Def Con from 0.000604527 to 0.000604527
Heightened Def Con from 0.000604527 to 0.000604527
Heightened Def Con from 0.000604527 to 0.000604527
Heightened Def Con from 0.000604527 to 0.000604527
Heightened Def Con from 0.000604527 to 0.000604527
Heightened Def Con from 0.000604527 to 0.000604527
Heightened Def Con from 0.000604528 to 0.000604528
Heightened Def Con from 0.000604528 to 0.000604528
Heightened Def Con from 0.000604528 to 0.000604528
Heightened Def Con from 0.000604528 to 0.000604528
Heightened Def Con from 0.000604528 to 0.000604528
Heightened Def Con from 0.000604528 to 0.000604528
Heightened Def Con from 0.000604528 to 0.000604528
Heightened Def Con from 0.000604528 to 0.000604528
Heightened Def Con from 0.000604528 to 0.000604528
Heightened Def Con from 0.000604528 to 0.000604528
Heightened Def Con from 0.000604528 to 0.000604528
Heightened Def Con from 0.000604528 to 0.000604528
Heightened Def Con from 0.000604528 to 0.000604528
Heightened Def Con from 0.000604528 to 0.000604528
Heightened Def Con from 0.000604528 to 0.000604528
Heightened Def Con from 0.000604528 to 0.000604528
Heightened Def Con from 0.000604528 to 0.000604528
Heightened Def Con from 0.000604528 to 0.000604528
Heightened Def Con from 0.000604528 to 0.000604528
Heightened Def Con from 0.000604528 to 0.000604528
Heightened Def Con from 0.000604528 to 0.000604528
Heightened Def Con from 0.000604528 to 0.000604528
Heightened Def Con from 0.000604528 to 0.000604528
Heightened Def Con from 0.000604528 to 0.000604528
Heightened Def Con from 0.000604528 to 0.000604528
Heightened Def Con from 0.000604528 to 0.000604528
Heightened Def Con from 0.000604528 to 0.000604528
Heightened Def Con from 0.000604528 to 0.000604528
Heightened Def Con from 0.000604528 to 0.000604528
Heightened Def Con from 0.000604528 to 0.000604528
Heightened Def Con from 0.000604528 to 0.000604528
Heightened Def Con from 0.000604528 to 0.000604528
Heightened Def Con from 0.000604528 to 0.000604528
Heightened Def Con from 0.000604528 to 0.000604528
Heightened Def Con from 0.000604528 to 0.000604528
Heightened Def Con from 0.000604528 +to 0.000604528
Heightened Def Con from 0.000604528 to 0.000604528
Heightened Def Con from 0.000604528 to 0.000604528
Heightened Def Con from 0.000604528 to 0.000604528
Heightened Def Con from 0.000604528 to 0.000604528
Heightened Def Con from 0.000604528 to 0.000604528
Heightened Def Con from 0.000604528 to 0.000604528
Heightened Def Con from 0.000604528 to 0.000604528
Heightened Def Con from 0.000604528 to 0.000604528
Heightened Def Con from 0.000604529 to 0.000604529
Heightened Def Con from 0.000604529 to 0.000604529
Heightened Def Con from 0.000604529 to 0.000604529
Heightened Def Con from 0.000604529 to 0.000604529
Heightened Def Con from 0.000604529 to 0.000604529
Heightened Def Con from 0.000604529 to 0.000604529
Heightened Def Con from 0.000604529 to 0.000604529
Heightened Def Con from 0.000604529 to 0.000604529
Heightened Def Con from 0.000604529 to 0.000604529
Heightened Def Con from 0.000604529 to 0.000604529
Heightened Def Con from 0.000604529 to 0.000604529
Heightened Def Con from 0.000604529 to 0.000604529
Heightened Def Con from 0.000604529 to 0.000604529
Heightened Def Con from 0.000604529 to 0.000604529
Heightened Def Con from 0.000604529 to 0.000604529
Heightened Def Con from 0.000604529 to 0.000604529
Heightened Def Con from 0.000604529 to 0.000604529
Heightened Def Con from 0.000604529 to 0.000604529
Heightened Def Con from 0.000604529 to 0.000604529
Heightened Def Con from 0.000604529 to 0.000604529
Heightened Def Con from 0.000604529 to 0.000604529
Heightened Def Con from 0.000604529 to 0.000604529
Heightened Def Con from 0.000604529 +to 0.000604529
Heightened Def Con from 0.000604529 to 0.000604529
Heightened Def Con from 0.000604529 to 0.000604529
Heightened Def Con from 0.000604529 to 0.000604529
Heightened Def Con from 0.000604529 to 0.000604529
Heightened Def Con from 0.000604529 to 0.000604529
Heightened Def Con from 0.000604529 to 0.000604529
Heightened Def Con from 0.000604529 to 0.000604529
Heightened Def Con from 0.000604529 to 0.000604529
Heightened Def Con from 0.000604529 to 0.000604529
Heightened Def Con from 0.000604529 to 0.000604529
Heightened Def Con from 0.000604529 to 0.000604529
Heightened Def Con from 0.000604529 to 0.000604529
Heightened Def Con from 0.00060453 to 0.00060453
Heightened Def Con from 0.00060453 to 0.00060453
Heightened Def Con from 0.00060453 to 0.00060453
Heightened Def Con from 0.00060453 to 0.00060453
Heightened Def Con from 0.00060453 to 0.00060453
Heightened Def Con from 0.00060453 to 0.00060453
Heightened Def Con from 0.00060453 +to 0.00060453
Heightened Def Con from 0.00060453 to 0.00060453
Heightened Def Con from 0.00060453 to 0.00060453
Heightened Def Con from 0.00060453 to 0.00060453
Heightened Def Con from 0.00060453 to 0.00060453
Heightened Def Con from 0.00060453 to 0.00060453
Heightened Def Con from 0.00060453 to 0.00060453
Heightened Def Con from 0.00060453 to 0.00060453
Heightened Def Con from 0.00060453 to 0.00060453
Heightened Def Con from 0.00060453 to 0.00060453
Heightened Def Con from 0.00060453 to 0.00060453
Heightened Def Con from 0.00060453 to 0.00060453
Heightened Def Con from 0.00060453 to 0.00060453
Heightened Def Con from 0.00060453 to 0.00060453
Heightened Def Con from 0.00060453 to 0.00060453
Heightened Def Con from 0.000604531 to 0.000604531
Heightened Def Con from 0.000604531 to 0.000604531
Heightened Def Con from 0.000604531 to 0.000604531
Heightened Def Con from 0.000604531 to 0.000604531
Heightened Def Con from 0.000604531 to 0.000604531
Heightened Def Con from 0.000604531 to 0.000604531
Heightened Def Con from 0.000604531 to 0.000604531
Heightened Def Con from 0.000604531 to 0.000604531
Heightened Def Con from 0.000604531 to 0.000604531
Heightened Def Con from 0.000604531 to 0.000604531
Heightened Def Con from 0.000604531 to 0.000604531
Heightened Def Con from 0.000604531 to 0.000604531
Heightened Def Con from 0.000604531 to 0.000604531
Heightened Def Con from 0.000604531 +to 0.000604531
Heightened Def Con from 0.000604531 to 0.000604531
Heightened Def Con from 0.000604531 to 0.000604531
Heightened Def Con from 0.000604531 to 0.000604531
Heightened Def Con from 0.000604531 to 0.000604531
Heightened Def Con from 0.000604531 to 0.000604531
Heightened Def Con from 0.000604531 to 0.000604531
Heightened Def Con from 0.000604531 to 0.000604531
Heightened Def Con from 0.000604531 to 0.000604531
Heightened Def Con from 0.000604531 to 0.000604531
Heightened Def Con from 0.000604531 to 0.000604531
Heightened Def Con from 0.000604531 to 0.000604531
Heightened Def Con from 0.000604531 to 0.000604531
Heightened Def Con from 0.000604531 to 0.000604531
Heightened Def Con from 0.000604531 to 0.000604531
Heightened Def Con from 0.000604531 to 0.000604531
Heightened Def Con from 0.000604531 to 0.000604531
Heightened Def Con from 0.000604531 to 0.000604531
Heightened Def Con from 0.000604531 to 0.000604531
Heightened Def Con from 0.000604531 to 0.000604531
Heightened Def Con from 0.000604532 to 0.000604532
Heightened Def Con from 0.000604532 to 0.000604532
Heightened Def Con from 0.000604532 to 0.000604532
Heightened Def Con from 0.000604532 to 0.000604532
Heightened Def Con from 0.000604532 to 0.000604532
Heightened Def Con from 0.000604532 to 0.000604532
Heightened Def Con from 0.000604532 to 0.000604532
Heightened Def Con from 0.000604532 to 0.000604532
Heightened Def Con from 0.000604532 to 0.000604532
Heightened Def Con from 0.000604532 to 0.000604532
Heightened Def Con from 0.000604532 to 0.000604532
Heightened Def Con from 0.000604532 to 0.000604532
Heightened Def Con from 0.000604532 to 0.000604532
Heightened Def Con from 0.000604533 to 0.000604533
Heightened Def Con from 0.000604533 to 0.000604533
Heightened Def Con from 0.000604533 to 0.000604533
Heightened Def Con from 0.000604533 to 0.000604533
Heightened Def Con from 0.000604533 to 0.000604533
Heightened Def Con from 0.000604533 to 0.000604533
Heightened Def Con from 0.000604533 to 0.000604533
Heightened Def Con from 0.000604533 to 0.000604533
Heightened Def Con from 0.000604533 to 0.000604533
Heightened Def Con from 0.000604533 to 0.000604533
Heightened Def Con from 0.000604533 to 0.000604533
Heightened Def Con from 0.000604533 to 0.000604533
Heightened Def Con from 0.000604533 to 0.000604533
Heightened Def Con from 0.000604533 to 0.000604533
Heightened Def Con from 0.000604533 to 0.000604533
Heightened Def Con from 0.000604533 to 0.000604533
Heightened Def Con from 0.000604533 to 0.000604533
Heightened Def Con from 0.000604533 to 0.000604533
Heightened Def Con from 0.000604533 to 0.000604533
Heightened Def Con from 0.000604533 to 0.000604533
Heightened Def Con from 0.000604534 to 0.000604534
Heightened Def Con from 0.000604534 to 0.000604534
Heightened Def Con from 0.000604534 to 0.000604534
Heightened Def Con from 0.000604534 to 0.000604534
Heightened Def Con from 0.000604534 to 0.000604534
Heightened Def Con from 0.000604534 to 0.000604534
Heightened Def Con from 0.000604534 to 0.000604534
Heightened Def Con from 0.000604534 to 0.000604534
Heightened Def Con from 0.000604534 to 0.000604534
Heightened Def Con from 0.000604534 to 0.000604534
Heightened Def Con from 0.000604534 to 0.000604534
Heightened Def Con from 0.000604534 to 0.000604534
Heightened Def Con from 0.000604534 to 0.000604534
Heightened Def Con from 0.000604534 to 0.000604534
Heightened Def Con from 0.000604534 to 0.000604534
Heightened Def Con from 0.000604534 to 0.000604534
Heightened Def Con from 0.000604534 to 0.000604534
Heightened Def Con from 0.000604534 to 0.000604534
Heightened Def Con from 0.000604534 to 0.000604534
Heightened Def Con from 0.000604534 to 0.000604534
Heightened Def Con from 0.000604534 to 0.000604534
Heightened Def Con from 0.000604535 +to 0.000604535
Heightened Def Con from 0.000604535 to 0.000604535
Heightened Def Con from 0.000604535 to 0.000604535
Heightened Def Con from 0.000604535 to 0.000604535
Heightened Def Con from 0.000604535 to 0.000604535
Heightened Def Con from 0.000604535 to 0.000604535
Heightened Def Con from 0.000604535 to 0.000604535
Heightened Def Con from 0.000604535 to 0.000604535
Heightened Def Con from 0.000604535 to 0.000604535
Heightened Def Con from 0.000604535 to 0.000604535
Heightened Def Con from 0.000604535 to 0.000604535
Heightened Def Con from 0.000604535 to 0.000604535
Heightened Def Con from 0.000604536 to 0.000604536
Heightened Def Con from 0.000604536 to 0.000604536
Heightened Def Con from 0.000604536 to 0.000604536
Heightened Def Con from 0.000604538 to 0.000604538
Heightened Def Con from 0.000604538 to 0.000604538
Heightened Def Con from 0.000604538 to 0.000604538
Heightened Def Con from 0.000604538 to 0.000604538
Heightened Def Con from 0.000604538 to 0.000604538
Heightened Def Con from 0.000604538 to 0.000604538
Heightened Def Con from 0.000604538 to 0.000604538
Heightened Def Con from 0.000604538 to 0.000604538
Heightened Def Con from 0.000604538 to 0.000604538
Heightened Def Con from 0.000604538 to 0.000604538
Heightened Def Con from 0.000604538 +to 0.000604538
Heightened Def Con from 0.000604539 to 0.000604539
Heightened Def Con from 0.000604539 to 0.000604539
Heightened Def Con from 0.000604539 to 0.000604539
Heightened Def Con from 0.000604539 to 0.000604539
Heightened Def Con from 0.000604539 to 0.000604539
Heightened Def Con from 0.000604539 to 0.000604539
Heightened Def Con from 0.000604539 to 0.000604539
Heightened Def Con from 0.000604539 to 0.000604539
Heightened Def Con from 0.000604539 to 0.000604539
Heightened Def Con from 0.000604539 to 0.000604539
Heightened Def Con from 0.000604539 to 0.000604539
Heightened Def Con from 0.000604539 to 0.000604539
Heightened Def Con from 0.000604539 to 0.000604539
Heightened Def Con from 0.000604539 to 0.000604539
Heightened Def Con from 0.000604539 to 0.000604539
Heightened Def Con from 0.000604539 to 0.000604539
Heightened Def Con from 0.000604539 to 0.000604539
Heightened Def Con from 0.000604539 to 0.000604539
Heightened Def Con from 0.000604539 to 0.000604539
Heightened Def Con from 0.000604539 to 0.000604539
Heightened Def Con from 0.000604539 to 0.000604539
Heightened Def Con from 0.000604539 to 0.000604539
Heightened Def Con from 0.00060454 to 0.00060454
Heightened Def Con from 0.00060454 to 0.00060454
Heightened Def Con from 0.00060454 to 0.00060454
Heightened Def Con from 0.00060454 to 0.00060454
Heightened Def Con from 0.00060454 to 0.00060454
Heightened Def Con from 0.00060454 to 0.00060454
Heightened Def Con from 0.00060454 to 0.00060454
Heightened Def Con from 0.00060454 to 0.00060454
Heightened Def Con from 0.00060454 to 0.00060454
Heightened Def Con from 0.00060454 to 0.00060454
Heightened Def Con from 0.00060454 to 0.00060454
Heightened Def Con from 0.00060454 to 0.00060454
Heightened Def Con from 0.00060454 to 0.00060454
Heightened Def Con from 0.00060454 to 0.00060454
Heightened Def Con from 0.00060454 to 0.00060454
Heightened Def Con from 0.00060454 to 0.00060454
Heightened Def Con from 0.00060454 to 0.00060454
Heightened Def Con from 0.00060454 +to 0.00060454
Heightened Def Con from 0.00060454 to 0.00060454
Heightened Def Con from 0.00060454 to 0.00060454
Heightened Def Con from 0.00060454 to 0.00060454
Heightened Def Con from 0.00060454 to 0.00060454
Heightened Def Con from 0.00060454 to 0.00060454
Heightened Def Con from 0.00060454 to 0.00060454
Heightened Def Con from 0.00060454 to 0.00060454
Heightened Def Con from 0.00060454 to 0.00060454
Heightened Def Con from 0.000604541 to 0.000604541
Heightened Def Con from 0.000604541 to 0.000604541
Heightened Def Con from 0.000604541 to 0.000604541
Heightened Def Con from 0.000604541 to 0.000604541
Heightened Def Con from 0.000604541 to 0.000604541
Heightened Def Con from 0.000604541 to 0.000604541
Heightened Def Con from 0.000604541 to 0.000604541
Heightened Def Con from 0.000604541 to 0.000604541
Heightened Def Con from 0.000604541 to 0.000604541
Heightened Def Con from 0.000604542 to 0.000604542
Heightened Def Con from 0.000604542 to 0.000604542
Heightened Def Con from 0.000604542 to 0.000604542
Heightened Def Con from 0.000604542 to 0.000604542
Heightened Def Con from 0.000604542 to 0.000604542
Heightened Def Con from 0.000604542 to 0.000604542
Heightened Def Con from 0.000604542 to 0.000604542
Heightened Def Con from 0.000604542 to 0.000604542
Heightened Def Con from 0.000604542 to 0.000604542
Heightened Def Con from 0.000604542 to 0.000604542
Heightened Def Con from 0.000604542 to 0.000604542
Heightened Def Con from 0.000604542 to 0.000604542
Heightened Def Con from 0.000604542 to 0.000604542
Heightened Def Con from 0.000604542 to 0.000604542
Heightened Def Con from 0.000604542 to 0.000604542
Heightened Def Con from 0.000604542 to 0.000604542
Heightened Def Con from 0.000604542 to 0.000604542
Heightened Def Con from 0.000604542 +to 0.000604542
Heightened Def Con from 0.000604542 to 0.000604542
Heightened Def Con from 0.000604542 to 0.000604542
Heightened Def Con from 0.000604542 to 0.000604542
Heightened Def Con from 0.000604542 to 0.000604542
Heightened Def Con from 0.000604542 to 0.000604542
Heightened Def Con from 0.000604543 to 0.000604543
Heightened Def Con from 0.000604543 to 0.000604543
Heightened Def Con from 0.000604543 to 0.000604543
Heightened Def Con from 0.000604543 to 0.000604543
Heightened Def Con from 0.000604543 to 0.000604543
Heightened Def Con from 0.000604543 to 0.000604543
Heightened Def Con from 0.000604543 to 0.000604543
Heightened Def Con from 0.000604543 to 0.000604543
Heightened Def Con from 0.000604543 to 0.000604543
Heightened Def Con from 0.000604543 to 0.000604543
Heightened Def Con from 0.000604543 to 0.000604543
Heightened Def Con from 0.000604543 to 0.000604543
Heightened Def Con from 0.000604543 to 0.000604543
Heightened Def Con from 0.000604543 to 0.000604543
Heightened Def Con from 0.000604543 to 0.000604543
Heightened Def Con from 0.000604543 to 0.000604543
Heightened Def Con from 0.000604543 to 0.000604543
Heightened Def Con from 0.000604543 to 0.000604543
Heightened Def Con from 0.000604543 to 0.000604543
Heightened Def Con from 0.000604543 to 0.000604543
Heightened Def Con from 0.000604543 to 0.000604543
Heightened Def Con from 0.000604543 to 0.000604543
Heightened Def Con from 0.000604543 to 0.000604543
Heightened Def Con from 0.000604543 to 0.000604543
Heightened Def Con from 0.000604543 to 0.000604543
Heightened Def Con from 0.000604543 to 0.000604543
Heightened Def Con from 0.000604544 to 0.000604544
Heightened Def Con from 0.000604544 to 0.000604544
Heightened Def Con from 0.000604544 to 0.000604544
Heightened Def Con from 0.000604544 to 0.000604544
Heightened Def Con from 0.000604544 to 0.000604544
Heightened Def Con from 0.000604544 to 0.000604544
Heightened Def Con from 0.000604544 to 0.000604544
Heightened Def Con from 0.000604544 to 0.000604544
Heightened Def Con from 0.000604544 to 0.000604544
Heightened Def Con from 0.000604544 to 0.000604544
Heightened Def Con from 0.000604544 to 0.000604544
Heightened Def Con from 0.000604544 +to 0.000604544
Heightened Def Con from 0.000604544 to 0.000604544
Heightened Def Con from 0.000604544 to 0.000604544
Heightened Def Con from 0.000604544 to 0.000604544
Heightened Def Con from 0.000604544 to 0.000604544
Heightened Def Con from 0.000604544 to 0.000604544
Heightened Def Con from 0.000604544 to 0.000604544
Heightened Def Con from 0.000604544 to 0.000604544
Heightened Def Con from 0.000604544 to 0.000604544
Heightened Def Con from 0.000604544 to 0.000604544
Heightened Def Con from 0.000604544 to 0.000604544
Heightened Def Con from 0.000604544 to 0.000604544
Heightened Def Con from 0.000604544 to 0.000604544
Heightened Def Con from 0.000604544 to 0.000604544
Heightened Def Con from 0.000604544 to 0.000604544
Heightened Def Con from 0.000604544 to 0.000604544
Heightened Def Con from 0.000604544 to 0.000604544
Heightened Def Con from 0.000604544 to 0.000604544
Heightened Def Con from 0.000604544 to 0.000604544
Heightened Def Con from 0.000604544 to 0.000604544
Heightened Def Con from 0.000604544 to 0.000604544
Heightened Def Con from 0.000604544 to 0.000604544
Heightened Def Con from 0.000604544 to 0.000604544
Heightened Def Con from 0.000604544 to 0.000604544
Heightened Def Con from 0.000604544 to 0.000604544
Heightened Def Con from 0.000604544 to 0.000604544
Heightened Def Con from 0.000604544 to 0.000604544
Heightened Def Con from 0.000604544 to 0.000604544
Heightened Def Con from 0.000604544 to 0.000604544
Heightened Def Con from 0.000604544 to 0.000604544
Heightened Def Con from 0.000604544 to 0.000604544
Heightened Def Con from 0.000604544 to 0.000604544
Heightened Def Con from 0.000604544 to 0.000604544
Heightened Def Con from 0.000604544 to 0.000604544
Heightened Def Con from 0.000604544 to 0.000604544
Heightened Def Con from 0.000604544 to 0.000604544
Heightened Def Con from 0.000604544 to 0.000604544
Heightened Def Con from 0.000604544 to 0.000604544
Heightened Def Con from 0.000604544 to 0.000604544
Heightened Def Con from 0.000604544 to 0.000604544
Heightened Def Con from 0.000604544 to 0.000604544
Heightened Def Con from 0.000604544 to 0.000604544
Heightened Def Con from 0.000604544 to 0.000604544
Heightened Def Con from 0.000604544 to 0.000604544
Heightened Def Con from 0.000604544 to 0.000604544
Heightened Def Con from 0.000604544 to 0.000604544
Heightened Def Con from 0.000604544 to 0.000604544
Heightened Def Con from 0.000604544 to 0.000604544
Heightened Def Con from 0.000604544 to 0.000604544
Heightened Def Con from 0.000604544 +to 0.000604544
Heightened Def Con from 0.000604544 to 0.000604544
Heightened Def Con from 0.000604544 to 0.000604544
Heightened Def Con from 0.000604544 to 0.000604544
Heightened Def Con from 0.000604544 to 0.000604544
Heightened Def Con from 0.000604544 +to 0.000604544
Heightened Def Con from 0.000604544 to 0.000604544
Heightened Def Con from 0.000604544 to 0.000604544
Heightened Def Con from 0.000604544 +to 0.000604544
Heightened Def Con from 0.000604544 to 0.000604544
Heightened Def Con from 0.000604544 to 0.000604544
Heightened Def Con from 0.000604544 to 0.000604544
Heightened Def Con from 0.000604544 to 0.000604544
Heightened Def Con from 0.000604544 to 0.000604544
Heightened Def Con from 0.000604544 to 0.000604544
Heightened Def Con from 0.000604544 to 0.000604544
Heightened Def Con from 0.000604544 to 0.000604544
Heightened Def Con from 0.000604544 to 0.000604544
Heightened Def Con from 0.000604544 to 0.000604544
Heightened Def Con from 0.000604545 to 0.000604545
Heightened Def Con from 0.000604545 to 0.000604545
Heightened Def Con from 0.000604545 to 0.000604545
Heightened Def Con from 0.000604545 to 0.000604545
Heightened Def Con from 0.000604545 to 0.000604545
Heightened Def Con from 0.000604545 to 0.000604545
Heightened Def Con from 0.000604545 to 0.000604545
Heightened Def Con from 0.000604545 to 0.000604545
Heightened Def Con from 0.000604545 to 0.000604545
Heightened Def Con from 0.000604545 to 0.000604545
Heightened Def Con from 0.000604545 to 0.000604545
Heightened Def Con from 0.000604545 to 0.000604545
Heightened Def Con from 0.000604545 to 0.000604545
Heightened Def Con from 0.000604545 to 0.000604545
Heightened Def Con from 0.000604545 to 0.000604545
Heightened Def Con from 0.000604545 to 0.000604545
Heightened Def Con from 0.000604545 to 0.000604545
Heightened Def Con from 0.000604545 to 0.000604545
Heightened Def Con from 0.000604545 to 0.000604545
Heightened Def Con from 0.000604545 to 0.000604545
Heightened Def Con from 0.000604545 to 0.000604545
Heightened Def Con from 0.000604545 to 0.000604545
Heightened Def Con from 0.000604545 to 0.000604545
Heightened Def Con from 0.000604545 to 0.000604545
Heightened Def Con from 0.000604545 to 0.000604545
Heightened Def Con from 0.000604545 to 0.000604545
Heightened Def Con from 0.000604545 to 0.000604545
Heightened Def Con from 0.000604545 to 0.000604545
Heightened Def Con from 0.000604545 to 0.000604545
Heightened Def Con from 0.000604545 to 0.000604545
Heightened Def Con from 0.000604545 to 0.000604545
Heightened Def Con from 0.000604545 to 0.000604545
Heightened Def Con from 0.000604545 to 0.000604545
Heightened Def Con from 0.000604545 to 0.000604545
Heightened Def Con from 0.000604545 to 0.000604545
Heightened Def Con from 0.000604545 to 0.000604545
Heightened Def Con from 0.000604545 to 0.000604545
Heightened Def Con from 0.000604546 to 0.000604546
Heightened Def Con from 0.000604546 to 0.000604546
Heightened Def Con from 0.000604546 +to 0.000604546
Heightened Def Con from 0.000604546 to 0.000604546
Heightened Def Con from 0.000604546 to 0.000604546
Heightened Def Con from 0.000604546 to 0.000604546
Heightened Def Con from 0.000604546 to 0.000604546
Heightened Def Con from 0.000604546 to 0.000604546
Heightened Def Con from 0.000604546 to 0.000604546
Heightened Def Con from 0.000604546 to 0.000604546
Heightened Def Con from 0.000604546 to 0.000604546
Heightened Def Con from 0.000604546 to 0.000604546
Heightened Def Con from 0.000604546 to 0.000604546
Heightened Def Con from 0.000604546 to 0.000604546
Heightened Def Con from 0.000604546 to 0.000604546
Heightened Def Con from 0.000604546 to 0.000604546
Heightened Def Con from 0.000604546 to 0.000604546
Heightened Def Con from 0.000604547 to 0.000604547
Heightened Def Con from 0.000604547 to 0.000604547
Heightened Def Con from 0.000604548 to 0.000604548
Heightened Def Con from 0.000604548 to 0.000604548
Heightened Def Con from 0.000604548 to 0.000604548
Heightened Def Con from 0.000604548 to 0.000604548
Heightened Def Con from 0.000604548 to 0.000604548
Heightened Def Con from 0.000604548 to 0.000604548
Heightened Def Con from 0.000604548 to 0.000604548
Heightened Def Con from 0.000604548 to 0.000604548
Heightened Def Con from 0.000604548 to 0.000604548
Heightened Def Con from 0.000604548 to 0.000604548
Heightened Def Con from 0.000604548 to 0.000604548
Heightened Def Con from 0.000604549 to 0.000604549
Heightened Def Con from 0.000604549 to 0.000604549
Heightened Def Con from 0.000604549 to 0.000604549
Heightened Def Con from 0.000604549 to 0.000604549
Heightened Def Con from 0.000604549 to 0.000604549
Heightened Def Con from 0.000604549 to 0.000604549
Heightened Def Con from 0.000604549 to 0.000604549
Heightened Def Con from 0.000604549 to 0.000604549
Heightened Def Con from 0.000604549 to 0.000604549
Heightened Def Con from 0.00060455 to 0.00060455
Heightened Def Con from 0.00060455 to 0.00060455
Heightened Def Con from 0.00060455 +to 0.00060455
Heightened Def Con from 0.00060455 to 0.00060455
Heightened Def Con from 0.00060455 to 0.00060455
Heightened Def Con from 0.00060455 to 0.00060455
Heightened Def Con from 0.00060455 to 0.00060455
Heightened Def Con from 0.00060455 to 0.00060455
Heightened Def Con from 0.00060455 to 0.00060455
Heightened Def Con from 0.00060455 to 0.00060455
Heightened Def Con from 0.00060455 to 0.00060455
Heightened Def Con from 0.00060455 to 0.00060455
Heightened Def Con from 0.00060455 to 0.00060455
Heightened Def Con from 0.00060455 to 0.00060455
Heightened Def Con from 0.00060455 to 0.00060455
Heightened Def Con from 0.00060455 to 0.00060455
Heightened Def Con from 0.00060455 to 0.00060455
Heightened Def Con from 0.00060455 to 0.00060455
Heightened Def Con from 0.00060455 to 0.00060455
Heightened Def Con from 0.00060455 to 0.00060455
Heightened Def Con from 0.00060455 to 0.00060455
Heightened Def Con from 0.00060455 to 0.00060455
Heightened Def Con from 0.000604551 to 0.000604551
Heightened Def Con from 0.000604551 to 0.000604551
Heightened Def Con from 0.000604551 to 0.000604551
Heightened Def Con from 0.000604551 to 0.000604551
Heightened Def Con from 0.000604551 to 0.000604551
Heightened Def Con from 0.000604551 to 0.000604551
Heightened Def Con from 0.000604551 to 0.000604551
Heightened Def Con from 0.000604551 to 0.000604551
Heightened Def Con from 0.000604551 to 0.000604551
Heightened Def Con from 0.000604551 to 0.000604551
Heightened Def Con from 0.000604551 to 0.000604551
Heightened Def Con from 0.000604552 to 0.000604552
Heightened Def Con from 0.000604552 to 0.000604552
Heightened Def Con from 0.000604552 to 0.000604552
Heightened Def Con from 0.000604552 to 0.000604552
Heightened Def Con from 0.000604552 to 0.000604552
Heightened Def Con from 0.000604552 to 0.000604552
Heightened Def Con from 0.000604552 to 0.000604552
Heightened Def Con from 0.000604552 to 0.000604552
Heightened Def Con from 0.000604552 to 0.000604552
Heightened Def Con from 0.000604552 to 0.000604552
Heightened Def Con from 0.000604552 to 0.000604552
Heightened Def Con from 0.000604552 to 0.000604552
Heightened Def Con from 0.000604552 to 0.000604552
Heightened Def Con from 0.000604552 to 0.000604552
Heightened Def Con from 0.000604552 to 0.000604552
Heightened Def Con from 0.000604552 to 0.000604552
Heightened Def Con from 0.000604552 to 0.000604552
Heightened Def Con from 0.000604552 to 0.000604552
Heightened Def Con from 0.000604552 to 0.000604552
Heightened Def Con from 0.000604552 to 0.000604552
Heightened Def Con from 0.000604552 to 0.000604552
Heightened Def Con from 0.000604552 to 0.000604552
Heightened Def Con from 0.000604552 to 0.000604552
Heightened Def Con from 0.000604552 to 0.000604552
Heightened Def Con from 0.000604552 to 0.000604552
Heightened Def Con from 0.000604552 to 0.000604552
Heightened Def Con from 0.000604552 to 0.000604552
Heightened Def Con from 0.000604552 to 0.000604552
Heightened Def Con from 0.000604552 to 0.000604552
Heightened Def Con from 0.000604552 to 0.000604552
Heightened Def Con from 0.000604552 to 0.000604552
Heightened Def Con from 0.000604552 to 0.000604552
Heightened Def Con from 0.000604553 to 0.000604553
Heightened Def Con from 0.000604553 to 0.000604553
Heightened Def Con from 0.000604553 to 0.000604553
Heightened Def Con from 0.000604553 to 0.000604553
Heightened Def Con from 0.000604553 to 0.000604553
Heightened Def Con from 0.000604553 to 0.000604553
Heightened Def Con from 0.000604553 to 0.000604553
Heightened Def Con from 0.000604553 to 0.000604553
Heightened Def Con from 0.000604553 to 0.000604553
Heightened Def Con from 0.000604553 to 0.000604553
Heightened Def Con from 0.000604553 to 0.000604553
Heightened Def Con from 0.000604553 to 0.000604553
Heightened Def Con from 0.000604553 to 0.000604553
Heightened Def Con from 0.000604553 to 0.000604553
Heightened Def Con from 0.000604553 to 0.000604553
Heightened Def Con from 0.000604553 to 0.000604553
Heightened Def Con from 0.000604553 to 0.000604553
Heightened Def Con from 0.000604553 to 0.000604553
Heightened Def Con from 0.000604554 to 0.000604554
Heightened Def Con from 0.000604554 to 0.000604554
Heightened Def Con from 0.000604554 to 0.000604554
Heightened Def Con from 0.000604554 to 0.000604554
Heightened Def Con from 0.000604554 to 0.000604554
Heightened Def Con from 0.000604554 to 0.000604554
Heightened Def Con from 0.000604554 to 0.000604554
Heightened Def Con from 0.000604554 to 0.000604554
Heightened Def Con from 0.000604554 to 0.000604554
Heightened Def Con from 0.000604554 to 0.000604554
Heightened Def Con from 0.000604554 to 0.000604554
Heightened Def Con from 0.000604554 to 0.000604554
Heightened Def Con from 0.000604554 to 0.000604554
Heightened Def Con from 0.000604554 to 0.000604554
Heightened Def Con from 0.000604554 to 0.000604554
Heightened Def Con from 0.000604554 to 0.000604554
Heightened Def Con from 0.000604554 to 0.000604554
Heightened Def Con from 0.000604554 to 0.000604554
Heightened Def Con from 0.000604554 to 0.000604554
Heightened Def Con from 0.000604554 to 0.000604554
Heightened Def Con from 0.000604554 to 0.000604554
Heightened Def Con from 0.000604554 to 0.000604554
Heightened Def Con from 0.000604554 to 0.000604554
Heightened Def Con from 0.000604554 to 0.000604554
Heightened Def Con from 0.000604554 to 0.000604554
Heightened Def Con from 0.000604554 to 0.000604554
Heightened Def Con from 0.000604554 to 0.000604554
Heightened Def Con from 0.000604554 to 0.000604554
Heightened Def Con from 0.000604554 to 0.000604554
Heightened Def Con from 0.000604554 to 0.000604554
Heightened Def Con from 0.000604554 to 0.000604554
Heightened Def Con from 0.000604554 to 0.000604554
Heightened Def Con from 0.000604554 to 0.000604554
Heightened Def Con from 0.000604554 to 0.000604554
Heightened Def Con from 0.000604554 to 0.000604554
Heightened Def Con from 0.000604554 +to 0.000604554
Heightened Def Con from 0.000604554 to 0.000604554
Heightened Def Con from 0.000604554 to 0.000604554
Heightened Def Con from 0.000604554 to 0.000604554
Heightened Def Con from 0.000604554 to 0.000604554
Heightened Def Con from 0.000604554 to 0.000604554
Heightened Def Con from 0.000604554 to 0.000604554
Heightened Def Con from 0.000604554 to 0.000604554
Heightened Def Con from 0.000604554 to 0.000604554
Heightened Def Con from 0.000604554 to 0.000604555
Heightened Def Con from 0.000604555 to 0.000604555
Heightened Def Con from 0.000604555 to 0.000604555
Heightened Def Con from 0.000604555 to 0.000604555
Heightened Def Con from 0.000604555 to 0.000604555
Heightened Def Con from 0.000604555 to 0.000604555
Heightened Def Con from 0.000604555 to 0.000604555
Heightened Def Con from 0.000604555 to 0.000604555
Heightened Def Con from 0.000604555 to 0.000604555
Heightened Def Con from 0.000604555 to 0.000604555
Heightened Def Con from 0.000604555 to 0.000604555
Heightened Def Con from 0.000604555 to 0.000604555
Heightened Def Con from 0.000604555 to 0.000604555
Heightened Def Con from 0.000604555 to 0.000604555
Heightened Def Con from 0.000604555 to 0.000604555
Heightened Def Con from 0.000604555 to 0.000604555
Heightened Def Con from 0.000604555 to 0.000604555
Heightened Def Con from 0.000604555 to 0.000604555
Heightened Def Con from 0.000604555 to 0.000604555
Heightened Def Con from 0.000604555 to 0.000604555
Heightened Def Con from 0.000604555 to 0.000604555
Heightened Def Con from 0.000604555 to 0.000604555
Heightened Def Con from 0.000604555 to 0.000604555
Heightened Def Con from 0.000604555 to 0.000604555
Heightened Def Con from 0.000604555 +to 0.000604555
Heightened Def Con from 0.000604555 to 0.000604555
Heightened Def Con from 0.000604555 to 0.000604555
Heightened Def Con from 0.000604555 to 0.000604555
Heightened Def Con from 0.000604555 to 0.000604555
Heightened Def Con from 0.000604555 to 0.000604555
Heightened Def Con from 0.000604556 to 0.000604556
Heightened Def Con from 0.000604556 to 0.000604556
Heightened Def Con from 0.000604556 to 0.000604556
Heightened Def Con from 0.000604556 to 0.000604556
Heightened Def Con from 0.000604556 to 0.000604556
Heightened Def Con from 0.000604556 to 0.000604556
Heightened Def Con from 0.000604556 to 0.000604556
Heightened Def Con from 0.000604556 to 0.000604556
Heightened Def Con from 0.000604556 to 0.000604556
Heightened Def Con from 0.000604556 to 0.000604556
Heightened Def Con from 0.000604556 to 0.000604556
Heightened Def Con from 0.000604556 to 0.000604556
Heightened Def Con from 0.000604556 to 0.000604556
Heightened Def Con from 0.000604556 to 0.000604556
Heightened Def Con from 0.000604556 to 0.000604556
Heightened Def Con from 0.000604556 to 0.000604556
Heightened Def Con from 0.000604556 to 0.000604556
Heightened Def Con from 0.000604556 to 0.000604556
Heightened Def Con from 0.000604556 to 0.000604556
Heightened Def Con from 0.000604556 to 0.000604556
Heightened Def Con from 0.000604556 to 0.000604556
Heightened Def Con from 0.000604556 to 0.000604556
Heightened Def Con from 0.000604556 to 0.000604556
Heightened Def Con from 0.000604556 to 0.000604556
Heightened Def Con from 0.000604556 to 0.000604556
Heightened Def Con from 0.000604556 to 0.000604556
Heightened Def Con from 0.000604556 to 0.000604556
Heightened Def Con from 0.000604557 to 0.000604557
Heightened Def Con from 0.000604557 to 0.000604557
Heightened Def Con from 0.000604557 to 0.000604557
Heightened Def Con from 0.000604557 to 0.000604557
Heightened Def Con from 0.000604557 to 0.000604557
Heightened Def Con from 0.000604557 to 0.000604557
Heightened Def Con from 0.000604557 to 0.000604557
Heightened Def Con from 0.000604557 to 0.000604557
Heightened Def Con from 0.000604557 to 0.000604557
Heightened Def Con from 0.000604557 to 0.000604557
Heightened Def Con from 0.000604557 to 0.000604557
Heightened Def Con from 0.000604557 to 0.000604557
Heightened Def Con from 0.000604557 to 0.000604557
Heightened Def Con from 0.000604557 to 0.000604557
Heightened Def Con from 0.000604557 to 0.000604557
Heightened Def Con from 0.000604557 to 0.000604557
Heightened Def Con from 0.000604557 to 0.000604557
Heightened Def Con from 0.000604557 to 0.000604557
Heightened Def Con from 0.000604557 to 0.000604557
Heightened Def Con from 0.000604557 to 0.000604557
Heightened Def Con from 0.000604557 to 0.000604557
Heightened Def Con from 0.000604557 to 0.000604557
Heightened Def Con from 0.000604557 to 0.000604557
Heightened Def Con from 0.000604557 to 0.000604557
Heightened Def Con from 0.000604557 to 0.000604557
Heightened Def Con from 0.000604557 to 0.000604557
Heightened Def Con from 0.000604557 to 0.000604557
Heightened Def Con from 0.000604557 to 0.000604557
Heightened Def Con from 0.000604557 to 0.000604557
Heightened Def Con from 0.000604557 to 0.000604557
Heightened Def Con from 0.000604557 to 0.000604557
Heightened Def Con from 0.000604557 to 0.000604557
Heightened Def Con from 0.000604557 to 0.000604557
Heightened Def Con from 0.000604557 to 0.000604557
Heightened Def Con from 0.000604558 to 0.000604558
Heightened Def Con from 0.000604558 to 0.000604558
Heightened Def Con from 0.000604558 to 0.000604558
Heightened Def Con from 0.000604558 to 0.000604558
Heightened Def Con from 0.000604559 to 0.000604559
Heightened Def Con from 0.000604559 to 0.000604559
Heightened Def Con from 0.000604559 to 0.000604559
Heightened Def Con from 0.000604559 to 0.000604559
Heightened Def Con from 0.000604559 to 0.000604559
Heightened Def Con from 0.000604559 to 0.000604559
Heightened Def Con from 0.000604559 to 0.000604559
Heightened Def Con from 0.000604559 to 0.000604559
Heightened Def Con from 0.000604559 to 0.000604559
Heightened Def Con from 0.000604559 to 0.000604559
Heightened Def Con from 0.000604559 to 0.000604559
Heightened Def Con from 0.000604559 to 0.000604559
Heightened Def Con from 0.000604559 to 0.000604559
Heightened Def Con from 0.000604559 to 0.000604559
Heightened Def Con from 0.000604559 to 0.000604559
Heightened Def Con from 0.000604559 to 0.000604559
Heightened Def Con from 0.000604559 to 0.000604559
Heightened Def Con from 0.000604559 to 0.000604559
Heightened Def Con from 0.000604559 to 0.000604559
Heightened Def Con from 0.000604559 to 0.000604559
Heightened Def Con from 0.000604559 to 0.000604559
Heightened Def Con from 0.00060456 to 0.00060456
Heightened Def Con from 0.00060456 to 0.00060456
Heightened Def Con from 0.00060456 to 0.00060456
Heightened Def Con from 0.00060456 to 0.00060456
Heightened Def Con from 0.00060456 to 0.00060456
Heightened Def Con from 0.00060456 to 0.00060456
Heightened Def Con from 0.00060456 to 0.00060456
Heightened Def Con from 0.00060456 to 0.00060456
Heightened Def Con from 0.00060456 to 0.00060456
Heightened Def Con from 0.00060456 to 0.00060456
Heightened Def Con from 0.00060456 to 0.00060456
Heightened Def Con from 0.00060456 to 0.00060456
Heightened Def Con from 0.00060456 to 0.00060456
Heightened Def Con from 0.00060456 to 0.00060456
Heightened Def Con from 0.00060456 to 0.00060456
Heightened Def Con from 0.00060456 to 0.00060456
Heightened Def Con from 0.00060456 to 0.00060456
Heightened Def Con from 0.00060456 to 0.00060456
Heightened Def Con from 0.00060456 to 0.00060456
Heightened Def Con from 0.00060456 to 0.00060456
Heightened Def Con from 0.00060456 to 0.00060456
Heightened Def Con from 0.00060456 to 0.00060456
Heightened Def Con from 0.00060456 to 0.00060456
Heightened Def Con from 0.00060456 to 0.00060456
Heightened Def Con from 0.00060456 to 0.00060456
Heightened Def Con from 0.00060456 to 0.00060456
Heightened Def Con from 0.00060456 to 0.00060456
Heightened Def Con from 0.00060456 to 0.00060456
Heightened Def Con from 0.00060456 to 0.00060456
Heightened Def Con from 0.00060456 to 0.00060456
Heightened Def Con from 0.00060456 to 0.00060456
Heightened Def Con from 0.00060456 to 0.00060456
Heightened Def Con from 0.00060456 to 0.00060456
Heightened Def Con from 0.000604561 to 0.000604561
Heightened Def Con from 0.000604561 to 0.000604561
Heightened Def Con from 0.000604561 to 0.000604561
Heightened Def Con from 0.000604561 to 0.000604561
Heightened Def Con from 0.000604561 to 0.000604561
Heightened Def Con from 0.000604561 to 0.000604561
Heightened Def Con from 0.000604561 to 0.000604561
Heightened Def Con from 0.000604561 to 0.000604561
Heightened Def Con from 0.000604561 to 0.000604561
Heightened Def Con from 0.000604561 to 0.000604561
Heightened Def Con from 0.000604561 to 0.000604561
Heightened Def Con from 0.000604561 to 0.000604561
Heightened Def Con from 0.000604561 to 0.000604561
Heightened Def Con from 0.000604561 to 0.000604561
Heightened Def Con from 0.000604561 to 0.000604561
Heightened Def Con from 0.000604561 to 0.000604561
Heightened Def Con from 0.000604561 to 0.000604561
Heightened Def Con from 0.000604561 to 0.000604561
Heightened Def Con from 0.000604561 to 0.000604561
Heightened Def Con from 0.000604561 to 0.000604561
Heightened Def Con from 0.000604561 to 0.000604561
Heightened Def Con from 0.000604561 to 0.000604561
Heightened Def Con from 0.000604561 to 0.000604561
Heightened Def Con from 0.000604561 to 0.000604561
Heightened Def Con from 0.000604561 to 0.000604561
Heightened Def Con from 0.000604561 to 0.000604561
Heightened Def Con from 0.000604561 to 0.000604561
Heightened Def Con from 0.000604562 to 0.000604562
Heightened Def Con from 0.000604562 to 0.000604562
Heightened Def Con from 0.000604562 to 0.000604562
Heightened Def Con from 0.000604562 to 0.000604562
Heightened Def Con from 0.000604562 to 0.000604562
Heightened Def Con from 0.000604562 to 0.000604562
Heightened Def Con from 0.000604562 to 0.000604562
Heightened Def Con from 0.000604562 to 0.000604562
Heightened Def Con from 0.000604562 to 0.000604562
Heightened Def Con from 0.000604562 to 0.000604562
Heightened Def Con from 0.000604562 to 0.000604562
Heightened Def Con from 0.000604562 to 0.000604562
Heightened Def Con from 0.000604562 to 0.000604562
Heightened Def Con from 0.000604562 to 0.000604562
Heightened Def Con from 0.000604562 to 0.000604562
Heightened Def Con from 0.000604562 to 0.000604562
Heightened Def Con from 0.000604563 to 0.000604563
Heightened Def Con from 0.000604563 to 0.000604563
Heightened Def Con from 0.000604563 to 0.000604563
Heightened Def Con from 0.000604563 to 0.000604563
Heightened Def Con from 0.000604563 to 0.000604563
Heightened Def Con from 0.000604563 to 0.000604563
Heightened Def Con from 0.000604563 to 0.000604563
Heightened Def Con from 0.000604563 to 0.000604563
Heightened Def Con from 0.000604563 to 0.000604563
Heightened Def Con from 0.000604563 to 0.000604563
Heightened Def Con from 0.000604563 to 0.000604563
Heightened Def Con from 0.000604563 to 0.000604563
Heightened Def Con from 0.000604563 to 0.000604563
Heightened Def Con from 0.000604563 to 0.000604563
Heightened Def Con from 0.000604563 to 0.000604563
Heightened Def Con from 0.000604563 to 0.000604563
Heightened Def Con from 0.000604563 to 0.000604563
Heightened Def Con from 0.000604563 to 0.000604563
Heightened Def Con from 0.000604563 to 0.000604563
Heightened Def Con from 0.000604563 to 0.000604563
Heightened Def Con from 0.000604563 to 0.000604563
Heightened Def Con from 0.000604563 to 0.000604563
Heightened Def Con from 0.000604563 to 0.000604563
Heightened Def Con from 0.000604563 to 0.000604563
Heightened Def Con from 0.000604563 to 0.000604563
Heightened Def Con from 0.000604563 to 0.000604563
Heightened Def Con from 0.000604563 +to 0.000604563
Heightened Def Con from 0.000604563 to 0.000604563
Heightened Def Con from 0.000604563 to 0.000604563
Heightened Def Con from 0.000604563 to 0.000604563
Heightened Def Con from 0.000604563 to 0.000604563
Heightened Def Con from 0.000604563 to 0.000604563
Heightened Def Con from 0.000604563 to 0.000604563
Heightened Def Con from 0.000604563 to 0.000604563
Heightened Def Con from 0.000604563 to 0.000604563
Heightened Def Con from 0.000604563 to 0.000604563
Heightened Def Con from 0.000604563 +to 0.000604563
Heightened Def Con from 0.000604563 to 0.000604563
Heightened Def Con from 0.000604563 to 0.000604563
Heightened Def Con from 0.000604563 to 0.000604563
Heightened Def Con from 0.000604563 to 0.000604563
Heightened Def Con from 0.000604563 to 0.000604563
Heightened Def Con from 0.000604563 to 0.000604563
Heightened Def Con from 0.000604563 to 0.000604563
Heightened Def Con from 0.000604563 to 0.000604563
[...]
Heightened Def Con from 0.000605475 to 0.000605475
Heightened Def Con from 0.000605475 to 0.000605475
Heightened Def Con from 0.000605475 to 0.000605475
Heightened Def Con from 0.000605475 to 0.000605475
Heightened Def Con from 0.000605475 to 0.000605475
Heightened Def Con from 0.000605475 to 0.000605475
Heightened Def Con from 0.000605475 to 0.000605475
Heightened Def Con from 0.000605475 to 0.000605475
Heightened Def Con from 0.000605475 to 0.000605475
Heightened Def Con from 0.000605475 to 0.000605475
Heightened Def Con from 0.000605475 to 0.000605475
Heightened Def Con from 0.000605475 to 0.000605475
Heightened Def Con from 0.000605475 to 0.000605475
Heightened Def Con from 0.000605475 to 0.000605475
Heightened Def Con from 0.000605475 to 0.000605475
Heightened Def Con from 0.000605475 to 0.000605475
Heightened Def Con from 0.000605475 to 0.000605475
Heightened Def Con from 0.000605475 to 0.000605475
Heightened Def Con from 0.000605475 to 0.000605475
Heightened Def Con from 0.000605475 to 0.000605475
Heightened Def Con from 0.000605475 to 0.000605475
Heightened Def Con from 0.000605475 to 0.000605475
Heightened Def Con from 0.000605475 to 0.000605475
Heightened Def Con from 0.000605475 to 0.000605475
Heightened Def Con from 0.000605475 to 0.000605475
Heightened Def Con from 0.000605475 to 0.000605475
Heightened Def Con from 0.000605475 to 0.000605475
Heightened Def Con from 0.000605475 to 0.000605475
Heightened Def Con from 0.000605475 to 0.000605475
Heightened Def Con from 0.000605475 to 0.000605475
Heightened Def Con from 0.000605475 to 0.000605475
Heightened Def Con from 0.000605475 to 0.000605475
Heightened Def Con from 0.000605475 to 0.000605475
Heightened Def Con from 0.000605475 to 0.000605475
Heightened Def Con from 0.000605475 to 0.000605475
Heightened Def Con from 0.000605475 to 0.000605475
Heightened Def Con from 0.000605475 to 0.000605475
Heightened Def Con from 0.000605475 to 0.000605475
Heightened Def Con from 0.000605475 to 0.000605475
Heightened Def Con from 0.000605475 to 0.000605475
Heightened Def Con from 0.000605475 to 0.000605475
Heightened Def Con from 0.000605475 +to 0.000605475
Heightened Def Con from 0.000605475 to 0.000605475
Heightened Def Con from 0.000605475 to 0.000605475
Heightened Def Con from 0.000605475 to 0.000605475
Heightened Def Con from 0.000605475 to 0.000605475
Heightened Def Con from 0.000605475 to 0.000605475
Heightened Def Con from 0.000605475 to 0.000605475
Heightened Def Con from 0.000605475 to 0.000605475
Heightened Def Con from 0.000605475 to 0.000605475
Heightened Def Con from 0.000605475 to 0.000605475
Heightened Def Con from 0.000605475 to 0.000605475
Heightened Def Con from 0.000605475 to 0.000605475
Heightened Def Con from 0.000605475 to 0.000605475
Heightened Def Con from 0.000605475 to 0.000605475
Heightened Def Con from 0.000605475 to 0.000605475
Heightened Def Con from 0.000605475 to 0.000605475
Heightened Def Con from 0.000605475 to 0.000605475
Heightened Def Con from 0.000605475 to 0.000605475
Heightened Def Con from 0.000605475 to 0.000605475
Heightened Def Con from 0.000605475 to 0.000605475
Heightened Def Con from 0.000605475 to 0.000605476
Heightened Def Con from 0.000605476 to 0.000605476
Heightened Def Con from 0.000605476 to 0.000605476
Heightened Def Con from 0.000605476 to 0.000605476
Heightened Def Con from 0.000605476 to 0.000605476
Heightened Def Con from 0.000605476 to 0.000605476
Heightened Def Con from 0.000605476 to 0.000605476
Heightened Def Con from 0.000605476 to 0.000605476
Heightened Def Con from 0.000605476 to 0.000605476
Heightened Def Con from 0.000605476 to 0.000605476
Heightened Def Con from 0.000605476 to 0.000605476
Heightened Def Con from 0.000605476 to 0.000605476
Heightened Def Con from 0.000605476 to 0.000605476
Heightened Def Con from 0.000605476 to 0.000605476
Heightened Def Con from 0.000605476 to 0.000605476
Heightened Def Con from 0.000605476 to 0.000605476
Heightened Def Con from 0.000605476 to 0.000605476
Heightened Def Con from 0.000605476 to 0.000605476
Heightened Def Con from 0.000605476 to 0.000605476
Heightened Def Con from 0.000605476 to 0.000605476
Heightened Def Con from 0.000605476 to 0.000605476
Heightened Def Con from 0.000605476 to 0.000605476
Heightened Def Con from 0.000605476 to 0.000605476
Heightened Def Con from 0.000605476 to 0.000605476
Heightened Def Con from 0.000605476 to 0.000605476
Heightened Def Con from 0.000605476 to 0.000605476
Heightened Def Con from 0.000605476 to 0.000605476
Heightened Def Con from 0.000605476 to 0.000605476
Heightened Def Con from 0.000605476 to 0.000605476
Heightened Def Con from 0.000605476 to 0.000605476
Heightened Def Con from 0.000605476 to 0.000605476
Heightened Def Con from 0.000605476 to 0.000605476
Heightened Def Con from 0.000605476 to 0.000605476
Heightened Def Con from 0.000605476 to 0.000605476
Heightened Def Con from 0.000605476 to 0.000605476
Heightened Def Con from 0.000605476 to 0.000605476
Heightened Def Con from 0.000605476 to 0.000605476
Heightened Def Con from 0.000605476 +to 0.000605476
Heightened Def Con from 0.000605476 to 0.000605476
Heightened Def Con from 0.000605476 to 0.000605476
Heightened Def Con from 0.000605476 to 0.000605476
Heightened Def Con from 0.000605476 to 0.000605476
Heightened Def Con from 0.000605476 to 0.000605476
Heightened Def Con from 0.000605476 to 0.000605476
Heightened Def Con from 0.000605476 to 0.000605476
Heightened Def Con from 0.000605476 to 0.000605476
Heightened Def Con from 0.000605476 to 0.000605476
Heightened Def Con from 0.000605476 to 0.000605476
Heightened Def Con from 0.000605476 to 0.000605476
Heightened Def Con from 0.000605476 to 0.000605476
Heightened Def Con from 0.000605476 to 0.000605476
Heightened Def Con from 0.000605476 to 0.000605476
Heightened Def Con from 0.000605476 to 0.000605476
Heightened Def Con from 0.000605476 to 0.000605476
Heightened Def Con from 0.000605476 to 0.000605476
Heightened Def Con from 0.000605476 to 0.000605476
Heightened Def Con from 0.000605476 to 0.000605476
Heightened Def Con from 0.000605476 to 0.000605476
Heightened Def Con from 0.000605476 to 0.000605476
Heightened Def Con from 0.000605476 to 0.000605476
Heightened Def Con from 0.000605476 to 0.000605476
Heightened Def Con from 0.000605476 to 0.000605476
Heightened Def Con from 0.000605476 to 0.000605476
Heightened Def Con from 0.000605476 to 0.000605476
Heightened Def Con from 0.000605476 to 0.000605476
Heightened Def Con from 0.000605476 to 0.000605476
Heightened Def Con from 0.000605476 to 0.000605476
Heightened Def Con from 0.000605476 to 0.000605476
Heightened Def Con from 0.000605476 to 0.000605476
Heightened Def Con from 0.000605476 to 0.000605476
Heightened Def Con from 0.000605476 to 0.000605476
Heightened Def Con from 0.000605476 to 0.000605476
Heightened Def Con from 0.000605476 to 0.000605476
Heightened Def Con from 0.000605476 to 0.000605476
Heightened Def Con from 0.000605476 to 0.000605476
Heightened Def Con from 0.000605476 to 0.000605476
Heightened Def Con from 0.000605476 to 0.000605476
Heightened Def Con from 0.000605476 to 0.000605476
Heightened Def Con from 0.000605476 to 0.000605476
Heightened Def Con from 0.000605476 to 0.000605476
Heightened Def Con from 0.000605476 to 0.000605476
Heightened Def Con from 0.000605476 to 0.000605476
Heightened Def Con from 0.000605476 to 0.000605476
Heightened Def Con from 0.000605476 to 0.000605476
Heightened Def Con from 0.000605476 to 0.000605476
Heightened Def Con from 0.000605476 to 0.000605476
Heightened Def Con from 0.000605476 to 0.000605476
Heightened Def Con from 0.000605476 to 0.000605476
Heightened Def Con from 0.000605476 to 0.000605476
Heightened Def Con from 0.000605476 to 0.000605476
Heightened Def Con from 0.000605476 to 0.000605476
Heightened Def Con from 0.000605476 to 0.000605476
Heightened Def Con from 0.000605476 to 0.000605476
Heightened Def Con from 0.000605476 to 0.000605476
Heightened Def Con from 0.000605476 to 0.000605476
Heightened Def Con from 0.000605476 to 0.000605476
Heightened Def Con from 0.000605476 to 0.000605476
Heightened Def Con from 0.000605476 to 0.000605476
Heightened Def Con from 0.000605476 to 0.000605476
Heightened Def Con from 0.000605476 to 0.000605476
Heightened Def Con from 0.000605476 to 0.000605476
Heightened Def Con from 0.000605476 to 0.000605476
Heightened Def Con from 0.000605476 to 0.000605476
Heightened Def Con from 0.000605476 to 0.000605476
Heightened Def Con from 0.000605476 to 0.000605476
Heightened Def Con from 0.000605476 +to 0.000605476
Heightened Def Con from 0.000605476 to 0.000605476
Heightened Def Con from 0.000605476 to 0.000605476
Heightened Def Con from 0.000605476 to 0.000605476
Heightened Def Con from 0.000605476 to 0.000605476
Heightened Def Con from 0.000605477 to 0.000605477
Heightened Def Con from 0.000605477 to 0.000605477
Heightened Def Con from 0.000605477 to 0.000605477
Heightened Def Con from 0.000605477 to 0.000605477
Heightened Def Con from 0.000605477 to 0.000605477
Heightened Def Con from 0.000605477 to 0.000605477
Heightened Def Con from 0.000605477 to 0.000605477
Heightened Def Con from 0.000605477 to 0.000605477
Heightened Def Con from 0.000605477 to 0.000605477
Heightened Def Con from 0.000605477 to 0.000605477
Heightened Def Con from 0.000605477 to 0.000605477
Heightened Def Con from 0.000605477 to 0.000605477
Heightened Def Con from 0.000605477 to 0.000605477
Heightened Def Con from 0.000605477 to 0.000605477
Heightened Def Con from 0.000605477 to 0.000605477
Heightened Def Con from 0.000605477 to 0.000605477
Heightened Def Con from 0.000605477 to 0.000605477
Heightened Def Con from 0.000605477 to 0.000605477
Heightened Def Con from 0.000605477 to 0.000605477
Heightened Def Con from 0.000605477 to 0.000605477
Heightened Def Con from 0.000605477 to 0.000605477
Heightened Def Con from 0.000605477 to 0.000605477
Heightened Def Con from 0.000605477 to 0.000605477
Heightened Def Con from 0.000605477 to 0.000605477
Heightened Def Con from 0.000605477 to 0.000605477
Heightened Def Con from 0.000605477 to 0.000605477
Heightened Def Con from 0.000605477 to 0.000605477
Heightened Def Con from 0.000605477 to 0.000605477
Heightened Def Con from 0.000605477 to 0.000605477
Heightened Def Con from 0.000605477 to 0.000605477
Heightened Def Con from 0.000605477 to 0.000605477
Heightened Def Con from 0.000605477 to 0.000605477
Heightened Def Con from 0.000605477 to 0.000605477
Heightened Def Con from 0.000605477 to 0.000605477
Heightened Def Con from 0.000605477 to 0.000605477
Heightened Def Con from 0.000605477 to 0.000605477
Heightened Def Con from 0.000605477 to 0.000605477
Heightened Def Con from 0.000605477 to 0.000605477
Heightened Def Con from 0.000605477 to 0.000605477
Heightened Def Con from 0.000605477 to 0.000605477
Heightened Def Con from 0.000605477 to 0.000605477
Heightened Def Con from 0.000605477 to 0.000605477
Heightened Def Con from 0.000605477 to 0.000605477
Heightened Def Con from 0.000605477 to 0.000605477
Heightened Def Con from 0.000605477 to 0.000605477
Heightened Def Con from 0.000605477 to 0.000605477
Heightened Def Con from 0.000605477 to 0.000605477
Heightened Def Con from 0.000605477 to 0.000605477
Heightened Def Con from 0.000605477 to 0.000605477
Heightened Def Con from 0.000605477 to 0.000605477
Heightened Def Con from 0.000605477 to 0.000605477
Heightened Def Con from 0.000605477 to 0.000605477
Heightened Def Con from 0.000605477 to 0.000605477
Heightened Def Con from 0.000605477 to 0.000605477
Heightened Def Con from 0.000605477 to 0.000605477
Heightened Def Con from 0.000605477 to 0.000605477
Heightened Def Con from 0.000605477 to 0.000605477
Heightened Def Con from 0.000605477 to 0.000605477
Heightened Def Con from 0.000605477 to 0.000605477
Heightened Def Con from 0.000605477 to 0.000605477
Heightened Def Con from 0.000605477 to 0.000605477
Heightened Def Con from 0.000605477 to 0.000605477
Heightened Def Con from 0.000605477 to 0.000605477
Heightened Def Con from 0.000605477 to 0.000605477
Heightened Def Con from 0.000605477 to 0.000605477
Heightened Def Con from 0.000605477 to 0.000605477
Heightened Def Con from 0.000605477 to 0.000605477
Heightened Def Con from 0.000605477 to 0.000605477
Heightened Def Con from 0.000605477 to 0.000605477
Heightened Def Con from 0.000605477 to 0.000605477
Heightened Def Con from 0.000605477 to 0.000605477
Heightened Def Con from 0.000605477 to 0.000605477
Heightened Def Con from 0.000605477 to 0.000605477
Heightened Def Con from 0.000605477 to 0.000605477
Heightened Def Con from 0.000605477 to 0.000605477
Heightened Def Con from 0.000605477 to 0.000605477
Heightened Def Con from 0.000605477 to 0.000605477
Heightened Def Con from 0.000605477 to 0.000605477
Heightened Def Con from 0.000605477 to 0.000605477
Heightened Def Con from 0.000605477 to 0.000605477
Heightened Def Con from 0.000605477 to 0.000605477
Heightened Def Con from 0.000605477 to 0.000605477
Heightened Def Con from 0.000605477 to 0.000605477
Heightened Def Con from 0.000605477 to 0.000605477
Heightened Def Con from 0.000605477 to 0.000605477
Heightened Def Con from 0.000605477 to 0.000605477
Heightened Def Con from 0.000605477 to 0.000605477
Heightened Def Con from 0.000605477 to 0.000605477
Heightened Def Con from 0.000605477 to 0.000605477
Heightened Def Con from 0.000605477 to 0.000605477
Heightened Def Con from 0.000605477 to 0.000605477
Heightened Def Con from 0.000605477 to 0.000605477
Heightened Def Con from 0.000605477 to 0.000605477
Heightened Def Con from 0.000605477 to 0.000605477
Heightened Def Con from 0.000605477 to 0.000605477
Heightened Def Con from 0.000605477 to 0.000605477
Heightened Def Con from 0.000605477 to 0.000605477
Heightened Def Con from 0.000605477 to 0.000605477
Heightened Def Con from 0.000605477 +++to 0.000605477
Heightened Def Con from 0.000605477 to 0.000605477
Heightened Def Con from 0.000605477 to 0.000605477
Heightened Def Con from 0.000605477 to 0.000605477
Heightened Def Con from 0.000605477 to 0.000605477
Heightened Def Con from 0.000605477 to 0.000605477
Heightened Def Con from 0.000605477 to 0.000605477
Heightened Def Con from 0.000605477 to 0.000605477
Heightened Def Con from 0.000605477 to 0.000605477
Heightened Def Con from 0.000605477 +to 0.000605477
Heightened Def Con from 0.000605477 to 0.000605477
Heightened Def Con from 0.000605477 to 0.000605477
Heightened Def Con from 0.000605477 to 0.000605477
Heightened Def Con from 0.000605477 to 0.000605477
Heightened Def Con from 0.000605477 to 0.000605477
Heightened Def Con from 0.000605477 +to 0.000605478
Heightened Def Con from 0.000605478 to 0.000605478
Heightened Def Con from 0.000605478 to 0.000605478
Heightened Def Con from 0.000605478 to 0.000605478
Heightened Def Con from 0.000605478 to 0.000605478
Heightened Def Con from 0.000605478 to 0.000605478
Heightened Def Con from 0.000605478 to 0.000605478
Heightened Def Con from 0.000605478 to 0.000605478
Heightened Def Con from 0.000605478 to 0.000605478
Heightened Def Con from 0.000605478 to 0.000605478
Heightened Def Con from 0.000605478 to 0.000605478
Heightened Def Con from 0.000605478 to 0.000605478
Heightened Def Con from 0.000605478 to 0.000605478
Heightened Def Con from 0.000605478 to 0.000605478
Heightened Def Con from 0.000605478 to 0.000605478
Heightened Def Con from 0.000605478 to 0.000605478
Heightened Def Con from 0.000605478 to 0.000605478
Heightened Def Con from 0.000605478 to 0.000605478
Heightened Def Con from 0.000605478 to 0.000605478
Heightened Def Con from 0.000605478 to 0.000605478
Heightened Def Con from 0.000605478 to 0.000605478
Heightened Def Con from 0.000605478 to 0.000605478
Heightened Def Con from 0.000605478 to 0.000605478
Heightened Def Con from 0.000605478 to 0.000605478
Heightened Def Con from 0.000605478 to 0.000605478
Heightened Def Con from 0.000605478 to 0.000605478
Heightened Def Con from 0.000605478 to 0.000605478
Heightened Def Con from 0.000605478 to 0.000605478
Heightened Def Con from 0.000605478 to 0.000605478
Heightened Def Con from 0.000605478 to 0.000605478
Heightened Def Con from 0.000605478 to 0.000605478
Heightened Def Con from 0.000605478 to 0.000605478
Heightened Def Con from 0.000605478 to 0.000605478
Heightened Def Con from 0.000605478 to 0.000605478
Heightened Def Con from 0.000605478 to 0.000605478
Heightened Def Con from 0.000605478 to 0.000605478
Heightened Def Con from 0.000605478 to 0.000605478
Heightened Def Con from 0.000605478 to 0.000605478
Heightened Def Con from 0.000605478 to 0.000605478
Heightened Def Con from 0.000605478 to 0.000605478
Heightened Def Con from 0.000605478 to 0.000605478
Heightened Def Con from 0.000605478 to 0.000605478
Heightened Def Con from 0.000605478 to 0.000605478
Heightened Def Con from 0.000605478 to 0.000605478
Heightened Def Con from 0.000605478 to 0.000605478
Heightened Def Con from 0.000605478 to 0.000605478
Heightened Def Con from 0.000605478 to 0.000605478
Heightened Def Con from 0.000605478 to 0.000605478
Heightened Def Con from 0.000605478 to 0.000605478
Heightened Def Con from 0.000605478 to 0.000605478
Heightened Def Con from 0.000605478 to 0.000605478
Heightened Def Con from 0.000605478 to 0.000605478
Heightened Def Con from 0.000605478 to 0.000605478
Heightened Def Con from 0.000605478 to 0.000605478
Heightened Def Con from 0.000605478 to 0.000605478
Heightened Def Con from 0.000605478 to 0.000605478
Heightened Def Con from 0.000605478 to 0.000605478
Heightened Def Con from 0.000605478 to 0.000605478
Heightened Def Con from 0.000605478 to 0.000605478
Heightened Def Con from 0.000605478 to 0.000605478
Heightened Def Con from 0.000605478 to 0.000605478
Heightened Def Con from 0.000605478 to 0.000605478
Heightened Def Con from 0.000605478 to 0.000605478
Heightened Def Con from 0.000605478 to 0.000605478
Heightened Def Con from 0.000605478 to 0.000605478
Heightened Def Con from 0.000605478 to 0.000605478
Heightened Def Con from 0.000605478 to 0.000605478
Heightened Def Con from 0.000605478 to 0.000605478
Heightened Def Con from 0.000605478 to 0.000605478
Heightened Def Con from 0.000605478 to 0.000605478
Heightened Def Con from 0.000605478 to 0.000605478
Heightened Def Con from 0.000605478 to 0.000605478
Heightened Def Con from 0.000605478 to 0.000605478
Heightened Def Con from 0.000605478 to 0.000605478
Heightened Def Con from 0.000605478 to 0.000605478
Heightened Def Con from 0.000605478 to 0.000605478
Heightened Def Con from 0.000605478 to 0.000605478
Heightened Def Con from 0.000605478 to 0.000605478
Heightened Def Con from 0.000605478 to 0.000605478
Heightened Def Con from 0.000605478 to 0.000605478
Heightened Def Con from 0.000605478 to 0.000605478
Heightened Def Con from 0.000605478 to 0.000605478
Heightened Def Con from 0.000605478 to 0.000605478
Heightened Def Con from 0.000605478 to 0.000605478
Heightened Def Con from 0.000605478 to 0.000605478
Heightened Def Con from 0.000605478 to 0.000605478
Heightened Def Con from 0.000605478 to 0.000605478
Heightened Def Con from 0.000605478 to 0.000605478
Heightened Def Con from 0.000605478 to 0.000605478
Heightened Def Con from 0.000605478 to 0.000605478
Heightened Def Con from 0.000605478 to 0.000605478
Heightened Def Con from 0.000605479 to 0.000605479
Heightened Def Con from 0.000605479 to 0.000605479
Heightened Def Con from 0.000605479 to 0.000605479
Heightened Def Con from 0.000605479 to 0.000605479
Heightened Def Con from 0.000605479 to 0.000605479
Heightened Def Con from 0.000605479 to 0.000605479
Heightened Def Con from 0.000605479 to 0.000605479
Heightened Def Con from 0.000605479 to 0.000605479
Heightened Def Con from 0.000605479 to 0.000605479
Heightened Def Con from 0.000605479 to 0.000605479
Heightened Def Con from 0.000605479 to 0.000605479
Heightened Def Con from 0.000605479 to 0.000605479
Heightened Def Con from 0.000605479 to 0.000605479
Heightened Def Con from 0.000605479 to 0.000605479
Heightened Def Con from 0.000605479 to 0.000605479
Heightened Def Con from 0.000605479 to 0.000605479
Heightened Def Con from 0.000605479 