Circuit: * D:\Google Drive\Delta Technologies\Projects\deltaSigmaADC\SPICE\oscilator.asc

WARNING: Less than two connections to node -5V.  This node is used by V2.
Instance "m:u1:6": Length shorter than recommended for a level 2 MOSFET.
Instance "m:u1:5": Length shorter than recommended for a level 2 MOSFET.
Instance "m:u1:4": Length shorter than recommended for a level 2 MOSFET.
Instance "m:u1:3": Length shorter than recommended for a level 2 MOSFET.
Instance "m:u1:2": Length shorter than recommended for a level 2 MOSFET.
Instance "m:u1:1": Length shorter than recommended for a level 2 MOSFET.
Direct Newton iteration failed to find .op point.  (Use ".option noopiter" to skip.)
Starting Gmin stepping
Gmin = 10
Gmin = 1.07374
Gmin = 0.115292
Gmin = 0.0123794
Gmin = 0.00132923
vernier = 0.5
vernier = 0.25
vernier = 0.125
Gmin = 0.00100586
vernier = 0.0625
vernier = 0.03125
vernier = 0.015625
vernier = 0.0078125
Gmin = 0.000999988
vernier = 0.00390625
vernier = 0.00195313
vernier = 0.000976563
vernier = 0.000488281
Gmin = 0.00100023
Gmin = 0
Gmin stepping failed

Starting source stepping with srcstepmethod=0
Source Step = 3.0303%
Source Step = 33.3333%
Source Step = 63.6364%
Source Step = 93.9394%
Source stepping succeeded in finding the operating point.


Date: Sat Apr 06 14:59:10 2019
Total elapsed time: 0.514 seconds.

tnom = 27
temp = 27
method = modified trap
totiter = 18246
traniter = 16434
tranpoints = 6214
accept = 4308
rejected = 1906
matrix size = 48
fillins = 39
solver = Alternate
Matrix Compiler1: 4.65 KB object code size  1.3/0.9/[0.6]
Matrix Compiler2: 5.25 KB object code size  1.1/1.3/[0.6]

